# created with PyMOL 2.3.4
@<TRIPOS>MOLECULE
ligand_out_0001
74 80 1                 
SMALL
USER_CHARGES
@<TRIPOS>ATOM
1	   N	136.939	133.253	144.028	N.pl3	1	UNK0	-0.337	
2	   N	137.361	130.469	145.739	N.3	1	UNK0	-0.218	
3	   N	135.027	130.669	145.950	N.3	1	UNK0	-0.235	
4	   N	136.399	130.754	147.844	N.3	1	UNK0	-0.183	
5	   N	137.717	129.281	149.237	N.3	1	UNK0	-0.191	
6	   N	139.394	129.246	147.705	N.3	1	UNK0	-0.216	
7	   N	139.309	127.534	149.336	N.3	1	UNK0	-0.235	
8	   N	132.480	133.952	139.086	N.pl3	1	UNK0	-0.361	
9	   N	131.870	135.639	133.494	N.3	1	UNK0	-0.349	
10	   N	132.613	129.103	132.324	N.3	1	UNK0	-0.353	
11	   C	131.666	133.594	140.251	C.3	1	UNK0	0.122	
12	   C	132.334	132.444	141.006	C.3	1	UNK0	0.020	
13	   C	133.251	133.011	142.092	C.3	1	UNK0	0.002	
14	   C	134.306	131.968	142.465	C.3	1	UNK0	0.002	
15	   C	135.692	132.483	142.070	C.3	1	UNK0	0.020	
16	   C	136.056	133.687	142.942	C.3	1	UNK0	0.125	
17	   C	138.272	133.420	143.919	C.2	1	UNK0	0.360	
18	   C	138.519	132.565	146.175	C.2	1	UNK0	0.208	
19	   C	138.607	131.038	146.248	C.3	1	UNK0	0.151	
20	   C	136.211	130.631	146.492	C.3	1	UNK0	0.672	
21	   C	137.659	130.592	148.571	C.3	1	UNK0	0.217	
22	   C	135.405	131.133	148.865	C.3	1	UNK0	0.150	
23	   C	138.891	130.636	147.682	C.3	1	UNK0	0.180	
24	   C	137.670	131.714	149.624	C.3	1	UNK0	0.209	
25	   C	138.835	128.620	148.793	C.3	1	UNK0	0.670	
26	   C	136.176	132.077	149.819	C.3	1	UNK0	0.093	
27	   C	133.223	135.077	139.103	C.2	1	UNK0	0.217	
28	   C	134.060	135.445	137.905	C.3	1	UNK0	0.103	
29	   C	133.528	134.720	136.668	C.3	1	UNK0	0.009	
30	   C	132.273	135.431	136.160	C.3	1	UNK0	0.002	
31	   C	131.324	134.407	135.535	C.3	1	UNK0	0.020	
32	   C	130.792	134.949	134.206	C.3	1	UNK0	0.129	
33	   C	131.863	136.977	133.250	C.3	1	UNK0	0.042	
34	   C	133.021	137.349	132.558	C.3	1	UNK0	-0.017	
35	   C	130.927	137.970	133.577	C.3	1	UNK0	0.030	
36	   C	133.802	136.069	132.364	C.3	1	UNK0	0.024	
37	   C	133.240	138.656	132.202	C.3	1	UNK0	0.010	
38	   C	132.928	135.025	133.029	C.3	1	UNK0	0.024	
39	   C	135.163	136.156	133.059	C.3	1	UNK0	0.027	
40	   C	133.976	135.759	130.875	C.3	1	UNK0	0.027	
41	   C	132.311	139.629	132.535	C.3	1	UNK0	0.001	
42	   C	131.159	139.280	133.220	C.3	1	UNK0	0.002	
43	   C	133.202	133.653	133.127	C.3	1	UNK0	0.026	
44	   C	134.467	133.229	133.417	C.3	1	UNK0	0.002	
45	   C	134.753	131.857	133.463	C.3	1	UNK0	0.000	
46	   C	134.676	131.106	132.327	C.3	1	UNK0	0.002	
47	   C	134.962	129.730	132.373	C.3	1	UNK0	0.026	
48	   C	133.953	128.828	132.372	C.3	1	UNK0	0.024	
49	   C	134.088	127.322	132.431	C.3	1	UNK0	0.024	
50	   C	131.844	127.942	132.336	C.3	1	UNK0	0.041	
51	   C	132.055	130.457	132.265	C.3	1	UNK0	0.156	
52	   C	132.662	126.820	132.403	C.3	1	UNK0	-0.017	
53	   C	130.462	127.768	132.297	C.3	1	UNK0	0.030	
54	   C	132.119	125.554	132.432	C.3	1	UNK0	0.010	
55	   C	130.746	125.391	132.393	C.3	1	UNK0	0.001	
56	   C	129.922	126.499	132.326	C.3	1	UNK0	0.002	
57	   C	134.861	126.806	131.216	C.3	1	UNK0	0.027	
58	   C	134.782	126.897	133.727	C.3	1	UNK0	0.027	
59	   O	138.741	133.930	142.921	O.co2	1	UNK0	-0.239	
60	   O	139.084	133.022	144.917	O.2	1	UNK0	-0.302	
61	   O	138.234	131.248	150.851	O.2	1	UNK0	-0.362	
62	   O	138.398	132.843	149.137	O.2	1	UNK0	-0.362	
63	   O	133.217	135.793	140.082	O.2	1	UNK0	-0.274	
64	   H	136.565	132.846	144.825	 H	1	UNK0	0.164	
65	   H	137.341	129.991	144.896	 H	1	UNK0	0.178	
66	   H	134.930	130.581	144.989	 H	1	UNK0	0.174	
67	   H	134.241	130.778	146.508	 H	1	UNK0	0.174	
68	   H	140.006	128.846	147.067	 H	1	UNK0	0.178	
69	   H	140.105	127.116	148.971	 H	1	UNK0	0.174	
70	   H	138.864	127.143	150.105	 H	1	UNK0	0.174	
71	   H	137.077	128.943	149.883	 H	1	UNK0	0.180	
72	   H	139.177	131.456	150.822	 H	1	UNK0	0.213	
73	   H	138.202	133.580	149.733	 H	1	UNK0	0.213	
74	   H	132.485	133.379	138.303	 H	1	UNK0	0.162	
@<TRIPOS>BOND
1 1 17 1
2 1 64 1
3 2 20 1
4 2 65 1
5 3 66 1
6 3 67 1
7 4 21 1
8 4 22 1
9 5 25 1
10 5 71 1
11 6 25 1
12 6 68 1
13 7 69 1
14 7 70 1
15 8 27 1
16 8 74 1
17 9 33 1
18 9 38 1
19 10 50 1
20 10 51 1
21 8 11 1
22 11 12 1
23 12 13 1
24 13 14 1
25 14 15 1
26 15 16 1
27 1 16 1
28 17 59 2
29 17 60 2
30 18 19 1
31 2 19 1
32 19 23 1
33 3 20 1
34 4 20 1
35 5 21 1
36 21 23 1
37 21 24 1
38 22 26 1
39 6 23 1
40 24 26 1
41 24 61 2
42 24 62 2
43 7 25 1
44 27 28 1
45 27 63 2
46 28 29 1
47 29 30 1
48 30 31 1
49 31 32 1
50 9 32 1
51 33 34 1
52 33 35 1
53 34 36 1
54 34 37 1
55 35 42 1
56 36 38 1
57 36 39 1
58 36 40 1
59 37 41 1
60 38 43 1
61 41 42 1
62 43 44 1
63 44 45 1
64 45 46 1
65 46 47 1
66 47 48 1
67 10 48 1
68 48 49 1
69 49 52 1
70 49 57 1
71 49 58 1
72 50 52 1
73 50 53 1
74 52 54 1
75 53 56 1
76 54 55 1
77 55 56 1
78 18 60 2
79 61 72 1
80 62 73 1
@<TRIPOS>SUBSTRUCTURE
1	UNK0	1	GROUP	1 ****	UNK
