MODEL 1
REMARK VINA RESULT:      -7.8      0.000      0.000
REMARK  5 active torsions:
REMARK  status: ('A' for Active; 'I' for Inactive)
REMARK    1  A    between atoms: C_6  and  C_7 
REMARK    2  A    between atoms: C_7  and  O_8 
REMARK    3  A    between atoms: O_8  and  C_9 
REMARK       I    between atoms: C_9  and  N_10 
REMARK    4  A    between atoms: C_24  and  O_25 
REMARK    5  A    between atoms: C_24  and  O_26 
ROOT
ATOM      1  N           0     135.882 134.708 146.895  0.00  0.00    -0.235 N 
ATOM      2  H           0     136.188 135.609 147.088  0.00  0.00     0.174 HD
ATOM      3  H           0     135.571 134.138 147.615  0.00  0.00     0.174 HD
ATOM      4  C           0     135.885 134.268 145.669  0.00  0.00     0.672 C 
ATOM      5  N           0     136.314 135.045 144.607  0.00  0.00    -0.218 N 
ATOM      6  C           0     136.877 134.373 143.441  0.00  0.00     0.151 C 
ATOM      7  C           0     135.984 133.266 142.915  0.00  0.00     0.180 C 
ATOM      8  N           0     134.862 133.863 142.160  0.00  0.00    -0.216 N 
ATOM      9  C           0     133.732 133.140 142.458  0.00  0.00     0.670 C 
ATOM     10  N           0     132.653 133.137 141.727  0.00  0.00    -0.235 N 
ATOM     11  H           0     132.614 133.667 140.916  0.00  0.00     0.174 HD
ATOM     12  H           0     131.888 132.603 141.994  0.00  0.00     0.174 HD
ATOM     13  C           0     135.300 132.451 144.003  0.00  0.00     0.217 C 
ATOM     14  N           0     133.879 132.423 143.618  0.00  0.00    -0.191 N 
ATOM     15  N           0     135.469 133.002 145.348  0.00  0.00    -0.183 N 
ATOM     16  C           0     135.154 131.892 146.265  0.00  0.00     0.150 C 
ATOM     17  C           0     135.756 130.644 145.579  0.00  0.00     0.093 C 
ATOM     18  C           0     135.850 131.016 144.077  0.00  0.00     0.209 C 
ATOM     19  H           0     136.240 136.012 144.638  0.00  0.00     0.178 HD
ATOM     20  H           0     134.914 134.626 141.564  0.00  0.00     0.178 HD
ATOM     21  H           0     133.169 131.973 144.102  0.00  0.00     0.180 HD
ENDROOT
BRANCH   6  22
ATOM     22  C           0     138.231 133.773 143.822  0.00  0.00     0.208 C 
BRANCH  22  23
ATOM     23  O           0     139.044 133.616 142.629  0.00  0.00    -0.302 OA
BRANCH  23  24
ATOM     24  C           0     139.568 134.698 142.023  0.00  0.00     0.360 C 
ATOM     25  N           0     140.079 134.594 140.781  0.00  0.00    -0.341 N 
ATOM     26  C           0     140.649 135.771 140.123  0.00  0.00     0.151 C 
ATOM     27  H           0     140.070 133.739 140.323  0.00  0.00     0.164 HD
ATOM     28  O           0     139.580 135.769 142.597  0.00  0.00    -0.239 OA
ENDBRANCH  23  24
ENDBRANCH  22  23
ENDBRANCH   6  22
BRANCH  18  29
ATOM     29  O           0     135.049 130.129 143.293  0.00  0.00    -0.362 OA
ATOM     30  H           0     135.379 130.184 142.386  0.00  0.00     0.213 HD
ENDBRANCH  18  29
BRANCH  18  31
ATOM     31  O           0     137.209 130.981 143.639  0.00  0.00    -0.362 OA
ATOM     32  H           0     137.760 130.976 144.434  0.00  0.00     0.213 HD
ENDBRANCH  18  31
TORSDOF 5
ENDMDL
MODEL 2
REMARK VINA RESULT:      -7.3      2.310      5.445
REMARK  5 active torsions:
REMARK  status: ('A' for Active; 'I' for Inactive)
REMARK    1  A    between atoms: C_6  and  C_7 
REMARK    2  A    between atoms: C_7  and  O_8 
REMARK    3  A    between atoms: O_8  and  C_9 
REMARK       I    between atoms: C_9  and  N_10 
REMARK    4  A    between atoms: C_24  and  O_25 
REMARK    5  A    between atoms: C_24  and  O_26 
ROOT
ATOM      1  N           0     135.874 134.681 146.835  0.00  0.00    -0.235 N 
ATOM      2  H           0     136.177 134.559 147.750  0.00  0.00     0.174 HD
ATOM      3  H           0     135.139 135.283 146.644  0.00  0.00     0.174 HD
ATOM      4  C           0     136.462 134.039 145.865  0.00  0.00     0.672 C 
ATOM      5  N           0     137.518 133.173 146.086  0.00  0.00    -0.218 N 
ATOM      6  C           0     137.713 132.066 145.155  0.00  0.00     0.151 C 
ATOM      7  C           0     137.737 132.517 143.707  0.00  0.00     0.180 C 
ATOM      8  N           0     139.047 133.135 143.411  0.00  0.00    -0.216 N 
ATOM      9  C           0     138.819 134.223 142.605  0.00  0.00     0.670 C 
ATOM     10  N           0     139.730 134.786 141.861  0.00  0.00    -0.235 N 
ATOM     11  H           0     140.635 134.437 141.855  0.00  0.00     0.174 HD
ATOM     12  H           0     139.503 135.553 141.313  0.00  0.00     0.174 HD
ATOM     13  C           0     136.734 133.614 143.382  0.00  0.00     0.217 C 
ATOM     14  N           0     137.515 134.644 142.678  0.00  0.00    -0.191 N 
ATOM     15  N           0     136.069 134.173 144.559  0.00  0.00    -0.183 N 
ATOM     16  C           0     134.866 134.851 144.040  0.00  0.00     0.150 C 
ATOM     17  C           0     134.359 133.924 142.910  0.00  0.00     0.093 C 
ATOM     18  C           0     135.601 133.106 142.474  0.00  0.00     0.209 C 
ATOM     19  H           0     138.115 133.300 146.841  0.00  0.00     0.178 HD
ATOM     20  H           0     139.910 132.827 143.729  0.00  0.00     0.178 HD
ATOM     21  H           0     137.167 135.478 142.325  0.00  0.00     0.180 HD
ENDROOT
BRANCH   6  22
ATOM     22  C           0     136.575 131.060 145.338  0.00  0.00     0.208 C 
BRANCH  22  23
ATOM     23  O           0     136.503 130.661 146.732  0.00  0.00    -0.302 OA
BRANCH  23  24
ATOM     24  C           0     135.909 129.500 147.071  0.00  0.00     0.360 C 
ATOM     25  N           0     134.584 129.342 146.886  0.00  0.00    -0.341 N 
ATOM     26  C           0     133.939 128.080 147.254  0.00  0.00     0.151 C 
ATOM     27  H           0     134.057 130.064 146.508  0.00  0.00     0.164 HD
ATOM     28  O           0     136.569 128.596 147.544  0.00  0.00    -0.239 OA
ENDBRANCH  23  24
ENDBRANCH  22  23
ENDBRANCH   6  22
BRANCH  18  29
ATOM     29  O           0     135.906 133.357 141.101  0.00  0.00    -0.362 OA
ATOM     30  H           0     135.802 132.518 140.633  0.00  0.00     0.213 HD
ENDBRANCH  18  29
BRANCH  18  31
ATOM     31  O           0     135.380 131.711 142.689  0.00  0.00    -0.362 OA
ATOM     32  H           0     135.783 131.491 143.540  0.00  0.00     0.213 HD
ENDBRANCH  18  31
TORSDOF 5
ENDMDL
MODEL 3
REMARK VINA RESULT:      -7.1      2.280      3.176
REMARK  5 active torsions:
REMARK  status: ('A' for Active; 'I' for Inactive)
REMARK    1  A    between atoms: C_6  and  C_7 
REMARK    2  A    between atoms: C_7  and  O_8 
REMARK    3  A    between atoms: O_8  and  C_9 
REMARK       I    between atoms: C_9  and  N_10 
REMARK    4  A    between atoms: C_24  and  O_25 
REMARK    5  A    between atoms: C_24  and  O_26 
ROOT
ATOM      1  N           0     136.284 135.151 148.101  0.00  0.00    -0.235 N 
ATOM      2  H           0     135.735 135.941 147.972  0.00  0.00     0.174 HD
ATOM      3  H           0     136.832 135.067 148.896  0.00  0.00     0.174 HD
ATOM      4  C           0     136.278 134.202 147.209  0.00  0.00     0.672 C 
ATOM      5  N           0     135.508 134.273 146.060  0.00  0.00    -0.218 N 
ATOM      6  C           0     135.975 133.569 144.870  0.00  0.00     0.151 C 
ATOM      7  C           0     136.321 132.118 145.145  0.00  0.00     0.180 C 
ATOM      8  N           0     135.073 131.332 145.250  0.00  0.00    -0.216 N 
ATOM      9  C           0     135.240 130.426 146.268  0.00  0.00     0.670 C 
ATOM     10  N           0     134.519 129.350 146.415  0.00  0.00    -0.235 N 
ATOM     11  H           0     133.814 129.148 145.781  0.00  0.00     0.174 HD
ATOM     12  H           0     134.688 128.749 147.158  0.00  0.00     0.174 HD
ATOM     13  C           0     137.011 131.888 146.481  0.00  0.00     0.217 C 
ATOM     14  N           0     136.257 130.792 147.112  0.00  0.00    -0.191 N 
ATOM     15  N           0     137.040 133.070 147.343  0.00  0.00    -0.183 N 
ATOM     16  C           0     138.096 132.802 148.336  0.00  0.00     0.150 C 
ATOM     17  C           0     139.205 132.083 147.533  0.00  0.00     0.093 C 
ATOM     18  C           0     138.482 131.476 146.304  0.00  0.00     0.209 C 
ATOM     19  H           0     134.679 134.776 146.049  0.00  0.00     0.178 HD
ATOM     20  H           0     134.282 131.437 144.699  0.00  0.00     0.178 HD
ATOM     21  H           0     136.449 130.397 147.977  0.00  0.00     0.180 HD
ENDROOT
BRANCH   6  22
ATOM     22  C           0     137.219 134.278 144.333  0.00  0.00     0.208 C 
BRANCH  22  23
ATOM     23  O           0     137.502 133.807 142.989  0.00  0.00    -0.302 OA
BRANCH  23  24
ATOM     24  C           0     138.729 133.977 142.459  0.00  0.00     0.360 C 
ATOM     25  N           0     139.006 135.083 141.741  0.00  0.00    -0.341 N 
ATOM     26  C           0     140.340 135.266 141.165  0.00  0.00     0.151 C 
ATOM     27  H           0     138.322 135.757 141.605  0.00  0.00     0.164 HD
ATOM     28  O           0     139.585 133.132 142.629  0.00  0.00    -0.239 OA
ENDBRANCH  23  24
ENDBRANCH  22  23
ENDBRANCH   6  22
BRANCH  18  29
ATOM     29  O           0     138.610 130.052 146.304  0.00  0.00    -0.362 OA
ATOM     30  H           0     138.409 129.754 147.202  0.00  0.00     0.213 HD
ENDBRANCH  18  29
BRANCH  18  31
ATOM     31  O           0     139.010 132.023 145.094  0.00  0.00    -0.362 OA
ATOM     32  H           0     138.558 132.865 144.947  0.00  0.00     0.213 HD
ENDBRANCH  18  31
TORSDOF 5
ENDMDL
MODEL 4
REMARK VINA RESULT:      -7.0      2.729      4.567
REMARK  5 active torsions:
REMARK  status: ('A' for Active; 'I' for Inactive)
REMARK    1  A    between atoms: C_6  and  C_7 
REMARK    2  A    between atoms: C_7  and  O_8 
REMARK    3  A    between atoms: O_8  and  C_9 
REMARK       I    between atoms: C_9  and  N_10 
REMARK    4  A    between atoms: C_24  and  O_25 
REMARK    5  A    between atoms: C_24  and  O_26 
ROOT
ATOM      1  N           0     139.692 130.545 146.228  0.00  0.00    -0.235 N 
ATOM      2  H           0     140.479 130.684 145.678  0.00  0.00     0.174 HD
ATOM      3  H           0     139.677 129.827 146.880  0.00  0.00     0.174 HD
ATOM      4  C           0     138.657 131.325 146.093  0.00  0.00     0.672 C 
ATOM      5  N           0     138.631 132.365 145.181  0.00  0.00    -0.218 N 
ATOM      6  C           0     137.341 132.775 144.635  0.00  0.00     0.151 C 
ATOM      7  C           0     136.306 133.035 145.712  0.00  0.00     0.180 C 
ATOM      8  N           0     136.575 134.346 146.340  0.00  0.00    -0.216 N 
ATOM      9  C           0     136.348 134.214 147.688  0.00  0.00     0.670 C 
ATOM     10  N           0     136.133 135.214 148.495  0.00  0.00    -0.235 N 
ATOM     11  H           0     136.126 136.122 148.152  0.00  0.00     0.174 HD
ATOM     12  H           0     135.979 135.053 149.439  0.00  0.00     0.174 HD
ATOM     13  C           0     136.360 132.055 146.874  0.00  0.00     0.217 C 
ATOM     14  N           0     136.375 132.899 148.080  0.00  0.00    -0.191 N 
ATOM     15  N           0     137.520 131.165 146.843  0.00  0.00    -0.183 N 
ATOM     16  C           0     137.175 130.043 147.736  0.00  0.00     0.150 C 
ATOM     17  C           0     135.672 129.790 147.471  0.00  0.00     0.093 C 
ATOM     18  C           0     135.133 131.127 146.902  0.00  0.00     0.209 C 
ATOM     19  H           0     139.450 132.811 144.913  0.00  0.00     0.178 HD
ATOM     20  H           0     136.860 135.152 145.882  0.00  0.00     0.178 HD
ATOM     21  H           0     136.400 132.580 148.996  0.00  0.00     0.180 HD
ENDROOT
BRANCH   6  22
ATOM     22  C           0     136.823 131.672 143.710  0.00  0.00     0.208 C 
BRANCH  22  23
ATOM     23  O           0     136.465 132.246 142.426  0.00  0.00    -0.302 OA
BRANCH  23  24
ATOM     24  C           0     135.182 132.562 142.163  0.00  0.00     0.360 C 
ATOM     25  N           0     134.895 133.534 141.275  0.00  0.00    -0.341 N 
ATOM     26  C           0     133.500 133.877 140.991  0.00  0.00     0.151 C 
ATOM     27  H           0     135.613 134.006 140.825  0.00  0.00     0.164 HD
ATOM     28  O           0     134.283 131.970 142.728  0.00  0.00    -0.239 OA
ENDBRANCH  23  24
ENDBRANCH  22  23
ENDBRANCH   6  22
BRANCH  18  29
ATOM     29  O           0     134.119 131.660 147.756  0.00  0.00    -0.362 OA
ATOM     30  H           0     134.502 131.719 148.642  0.00  0.00     0.213 HD
ENDBRANCH  18  29
BRANCH  18  31
ATOM     31  O           0     134.624 130.937 145.581  0.00  0.00    -0.362 OA
ATOM     32  H           0     134.950 131.675 145.046  0.00  0.00     0.213 HD
ENDBRANCH  18  31
TORSDOF 5
ENDMDL
MODEL 5
REMARK VINA RESULT:      -6.7      3.003      4.825
REMARK  5 active torsions:
REMARK  status: ('A' for Active; 'I' for Inactive)
REMARK    1  A    between atoms: C_6  and  C_7 
REMARK    2  A    between atoms: C_7  and  O_8 
REMARK    3  A    between atoms: O_8  and  C_9 
REMARK       I    between atoms: C_9  and  N_10 
REMARK    4  A    between atoms: C_24  and  O_25 
REMARK    5  A    between atoms: C_24  and  O_26 
ROOT
ATOM      1  N           0     135.054 130.362 143.611  0.00  0.00    -0.235 N 
ATOM      2  H           0     134.857 130.159 142.682  0.00  0.00     0.174 HD
ATOM      3  H           0     134.645 129.840 144.318  0.00  0.00     0.174 HD
ATOM      4  C           0     135.872 131.332 143.906  0.00  0.00     0.672 C 
ATOM      5  N           0     136.484 132.103 142.932  0.00  0.00    -0.218 N 
ATOM      6  C           0     136.846 133.477 143.263  0.00  0.00     0.151 C 
ATOM      7  C           0     137.644 133.578 144.549  0.00  0.00     0.180 C 
ATOM      8  N           0     139.039 133.161 144.290  0.00  0.00    -0.216 N 
ATOM      9  C           0     139.459 132.427 145.373  0.00  0.00     0.670 C 
ATOM     10  N           0     140.710 132.206 145.666  0.00  0.00    -0.235 N 
ATOM     11  H           0     141.412 132.569 145.104  0.00  0.00     0.174 HD
ATOM     12  H           0     140.940 131.678 146.446  0.00  0.00     0.174 HD
ATOM     13  C           0     137.178 132.632 145.645  0.00  0.00     0.217 C 
ATOM     14  N           0     138.401 131.956 146.108  0.00  0.00    -0.191 N 
ATOM     15  N           0     136.177 131.661 145.201  0.00  0.00    -0.183 N 
ATOM     16  C           0     135.539 131.167 146.435  0.00  0.00     0.150 C 
ATOM     17  C           0     135.434 132.417 147.340  0.00  0.00     0.093 C 
ATOM     18  C           0     136.523 133.386 146.815  0.00  0.00     0.209 C 
ATOM     19  H           0     136.668 131.737 142.052  0.00  0.00     0.178 HD
ATOM     20  H           0     139.562 133.368 143.500  0.00  0.00     0.178 HD
ATOM     21  H           0     138.450 131.291 146.813  0.00  0.00     0.180 HD
ENDROOT
BRANCH   6  22
ATOM     22  C           0     135.568 134.303 143.412  0.00  0.00     0.208 C 
BRANCH  22  23
ATOM     23  O           0     134.561 133.805 142.492  0.00  0.00    -0.302 OA
BRANCH  23  24
ATOM     24  C           0     134.017 134.630 141.576  0.00  0.00     0.360 C 
ATOM     25  N           0     133.814 134.198 140.316  0.00  0.00    -0.341 N 
ATOM     26  C           0     133.224 135.095 139.321  0.00  0.00     0.151 C 
ATOM     27  H           0     134.059 133.292 140.069  0.00  0.00     0.164 HD
ATOM     28  O           0     133.711 135.764 141.886  0.00  0.00    -0.239 OA
ENDBRANCH  23  24
ENDBRANCH  22  23
ENDBRANCH   6  22
BRANCH  18  29
ATOM     29  O           0     137.483 133.658 147.839  0.00  0.00    -0.362 OA
ATOM     30  H           0     138.125 134.276 147.464  0.00  0.00     0.213 HD
ENDBRANCH  18  29
BRANCH  18  31
ATOM     31  O           0     135.929 134.601 146.353  0.00  0.00    -0.362 OA
ATOM     32  H           0     135.847 134.525 145.393  0.00  0.00     0.213 HD
ENDBRANCH  18  31
TORSDOF 5
ENDMDL
MODEL 6
REMARK VINA RESULT:      -6.7      9.437     12.051
REMARK  5 active torsions:
REMARK  status: ('A' for Active; 'I' for Inactive)
REMARK    1  A    between atoms: C_6  and  C_7 
REMARK    2  A    between atoms: C_7  and  O_8 
REMARK    3  A    between atoms: O_8  and  C_9 
REMARK       I    between atoms: C_9  and  N_10 
REMARK    4  A    between atoms: C_24  and  O_25 
REMARK    5  A    between atoms: C_24  and  O_26 
ROOT
ATOM      1  N           0     128.861 134.016 131.989  0.00  0.00    -0.235 N 
ATOM      2  H           0     128.155 133.581 131.483  0.00  0.00     0.174 HD
ATOM      3  H           0     129.005 134.970 131.898  0.00  0.00     0.174 HD
ATOM      4  C           0     129.609 133.317 132.794  0.00  0.00     0.672 C 
ATOM      5  N           0     129.439 131.953 132.963  0.00  0.00    -0.218 N 
ATOM      6  C           0     130.601 131.151 133.333  0.00  0.00     0.151 C 
ATOM      7  C           0     131.339 131.710 134.533  0.00  0.00     0.180 C 
ATOM      8  N           0     130.589 131.381 135.764  0.00  0.00    -0.216 N 
ATOM      9  C           0     130.652 132.474 136.592  0.00  0.00     0.670 C 
ATOM     10  N           0     130.428 132.433 137.876  0.00  0.00    -0.235 N 
ATOM     11  H           0     130.200 131.592 138.302  0.00  0.00     0.174 HD
ATOM     12  H           0     130.489 133.244 138.405  0.00  0.00     0.174 HD
ATOM     13  C           0     131.429 133.228 134.555  0.00  0.00     0.217 C 
ATOM     14  N           0     130.980 133.615 135.903  0.00  0.00    -0.191 N 
ATOM     15  N           0     130.620 133.883 133.526  0.00  0.00    -0.183 N 
ATOM     16  C           0     131.167 135.247 133.410  0.00  0.00     0.150 C 
ATOM     17  C           0     132.695 135.062 133.560  0.00  0.00     0.093 C 
ATOM     18  C           0     132.866 133.723 134.322  0.00  0.00     0.209 C 
ATOM     19  H           0     128.568 131.542 132.840  0.00  0.00     0.178 HD
ATOM     20  H           0     130.135 130.544 135.951  0.00  0.00     0.178 HD
ATOM     21  H           0     130.927 134.520 136.246  0.00  0.00     0.180 HD
ENDROOT
BRANCH   6  22
ATOM     22  C           0     131.562 131.097 132.144  0.00  0.00     0.208 C 
BRANCH  22  23
ATOM     23  O           0     132.622 130.145 132.422  0.00  0.00    -0.302 OA
BRANCH  23  24
ATOM     24  C           0     132.457 128.844 132.113  0.00  0.00     0.360 C 
ATOM     25  N           0     132.746 127.893 133.022  0.00  0.00    -0.341 N 
ATOM     26  C           0     132.568 126.479 132.684  0.00  0.00     0.151 C 
ATOM     27  H           0     133.073 128.144 133.900  0.00  0.00     0.164 HD
ATOM     28  O           0     132.048 128.529 131.013  0.00  0.00    -0.239 OA
ENDBRANCH  23  24
ENDBRANCH  22  23
ENDBRANCH   6  22
BRANCH  18  29
ATOM     29  O           0     133.532 133.941 135.567  0.00  0.00    -0.362 OA
ATOM     30  H           0     134.469 133.750 135.421  0.00  0.00     0.213 HD
ENDBRANCH  18  29
BRANCH  18  31
ATOM     31  O           0     133.591 132.785 133.525  0.00  0.00    -0.362 OA
ATOM     32  H           0     133.090 131.958 133.540  0.00  0.00     0.213 HD
ENDBRANCH  18  31
TORSDOF 5
ENDMDL
MODEL 7
REMARK VINA RESULT:      -6.6      9.534     11.692
REMARK  5 active torsions:
REMARK  status: ('A' for Active; 'I' for Inactive)
REMARK    1  A    between atoms: C_6  and  C_7 
REMARK    2  A    between atoms: C_7  and  O_8 
REMARK    3  A    between atoms: O_8  and  C_9 
REMARK       I    between atoms: C_9  and  N_10 
REMARK    4  A    between atoms: C_24  and  O_25 
REMARK    5  A    between atoms: C_24  and  O_26 
ROOT
ATOM      1  N           0     134.706 133.538 132.288  0.00  0.00    -0.235 N 
ATOM      2  H           0     134.782 132.901 131.559  0.00  0.00     0.174 HD
ATOM      3  H           0     135.502 133.961 132.646  0.00  0.00     0.174 HD
ATOM      4  C           0     133.535 133.828 132.780  0.00  0.00     0.672 C 
ATOM      5  N           0     132.371 133.254 132.300  0.00  0.00    -0.218 N 
ATOM      6  C           0     131.243 133.106 133.215  0.00  0.00     0.151 C 
ATOM      7  C           0     130.900 134.397 133.933  0.00  0.00     0.180 C 
ATOM      8  N           0     130.169 135.289 133.009  0.00  0.00    -0.216 N 
ATOM      9  C           0     130.618 136.569 133.226  0.00  0.00     0.670 C 
ATOM     10  N           0     129.970 137.642 132.870  0.00  0.00    -0.235 N 
ATOM     11  H           0     129.113 137.566 132.422  0.00  0.00     0.174 HD
ATOM     12  H           0     130.344 138.518 133.053  0.00  0.00     0.174 HD
ATOM     13  C           0     132.112 135.217 134.350  0.00  0.00     0.217 C 
ATOM     14  N           0     131.834 136.578 133.863  0.00  0.00    -0.191 N 
ATOM     15  N           0     133.377 134.716 133.812  0.00  0.00    -0.183 N 
ATOM     16  C           0     134.425 135.323 134.653  0.00  0.00     0.150 C 
ATOM     17  C           0     133.831 135.304 136.081  0.00  0.00     0.093 C 
ATOM     18  C           0     132.296 135.235 135.877  0.00  0.00     0.209 C 
ATOM     19  H           0     132.306 132.959 131.377  0.00  0.00     0.178 HD
ATOM     20  H           0     129.494 135.020 132.366  0.00  0.00     0.178 HD
ATOM     21  H           0     132.411 137.350 133.975  0.00  0.00     0.180 HD
ENDROOT
BRANCH   6  22
ATOM     22  C           0     131.588 132.040 134.256  0.00  0.00     0.208 C 
BRANCH  22  23
ATOM     23  O           0     131.100 130.749 133.806  0.00  0.00    -0.302 OA
BRANCH  23  24
ATOM     24  C           0     131.951 129.863 133.253  0.00  0.00     0.360 C 
ATOM     25  N           0     131.715 128.541 133.367  0.00  0.00    -0.341 N 
ATOM     26  C           0     132.640 127.577 132.767  0.00  0.00     0.151 C 
ATOM     27  H           0     130.932 128.228 133.847  0.00  0.00     0.164 HD
ATOM     28  O           0     132.931 130.255 132.653  0.00  0.00    -0.239 OA
ENDBRANCH  23  24
ENDBRANCH  22  23
ENDBRANCH   6  22
BRANCH  18  29
ATOM     29  O           0     131.666 136.386 136.445  0.00  0.00    -0.362 OA
ATOM     30  H           0     130.888 136.071 136.925  0.00  0.00     0.213 HD
ENDBRANCH  18  29
BRANCH  18  31
ATOM     31  O           0     131.769 134.040 136.456  0.00  0.00    -0.362 OA
ATOM     32  H           0     130.914 133.878 136.034  0.00  0.00     0.213 HD
ENDBRANCH  18  31
TORSDOF 5
ENDMDL
MODEL 8
REMARK VINA RESULT:      -6.6      2.514      4.665
REMARK  5 active torsions:
REMARK  status: ('A' for Active; 'I' for Inactive)
REMARK    1  A    between atoms: C_6  and  C_7 
REMARK    2  A    between atoms: C_7  and  O_8 
REMARK    3  A    between atoms: O_8  and  C_9 
REMARK       I    between atoms: C_9  and  N_10 
REMARK    4  A    between atoms: C_24  and  O_25 
REMARK    5  A    between atoms: C_24  and  O_26 
ROOT
ATOM      1  N           0     138.836 134.825 142.613  0.00  0.00    -0.235 N 
ATOM      2  H           0     138.695 135.487 141.917  0.00  0.00     0.174 HD
ATOM      3  H           0     139.711 134.423 142.729  0.00  0.00     0.174 HD
ATOM      4  C           0     137.852 134.483 143.394  0.00  0.00     0.672 C 
ATOM      5  N           0     136.587 135.031 143.273  0.00  0.00    -0.218 N 
ATOM      6  C           0     135.441 134.229 143.687  0.00  0.00     0.151 C 
ATOM      7  C           0     135.601 133.658 145.084  0.00  0.00     0.180 C 
ATOM      8  N           0     135.348 134.724 146.077  0.00  0.00    -0.216 N 
ATOM      9  C           0     136.259 134.568 147.093  0.00  0.00     0.670 C 
ATOM     10  N           0     136.120 135.076 148.285  0.00  0.00    -0.235 N 
ATOM     11  H           0     135.333 135.602 148.499  0.00  0.00     0.174 HD
ATOM     12  H           0     136.802 134.929 148.958  0.00  0.00     0.174 HD
ATOM     13  C           0     137.012 133.188 145.404  0.00  0.00     0.217 C 
ATOM     14  N           0     137.334 133.812 146.698  0.00  0.00    -0.191 N 
ATOM     15  N           0     138.000 133.549 144.388  0.00  0.00    -0.183 N 
ATOM     16  C           0     139.150 132.658 144.628  0.00  0.00     0.150 C 
ATOM     17  C           0     138.511 131.302 145.011  0.00  0.00     0.093 C 
ATOM     18  C           0     137.093 131.657 145.527  0.00  0.00     0.209 C 
ATOM     19  H           0     136.467 135.928 142.921  0.00  0.00     0.178 HD
ATOM     20  H           0     134.663 135.408 146.020  0.00  0.00     0.178 HD
ATOM     21  H           0     138.164 133.705 147.189  0.00  0.00     0.180 HD
ENDROOT
BRANCH   6  22
ATOM     22  C           0     135.265 133.073 142.701  0.00  0.00     0.208 C 
BRANCH  22  23
ATOM     23  O           0     133.849 132.835 142.483  0.00  0.00    -0.302 OA
BRANCH  23  24
ATOM     24  C           0     133.226 133.397 141.430  0.00  0.00     0.360 C 
ATOM     25  N           0     133.912 134.194 140.587  0.00  0.00    -0.341 N 
ATOM     26  C           0     133.233 134.805 139.442  0.00  0.00     0.151 C 
ATOM     27  H           0     134.855 134.363 140.739  0.00  0.00     0.164 HD
ATOM     28  O           0     132.044 133.186 141.240  0.00  0.00    -0.239 OA
ENDBRANCH  23  24
ENDBRANCH  22  23
ENDBRANCH   6  22
BRANCH  18  29
ATOM     29  O           0     136.945 131.253 146.890  0.00  0.00    -0.362 OA
ATOM     30  H           0     136.261 130.570 146.907  0.00  0.00     0.213 HD
ENDBRANCH  18  29
BRANCH  18  31
ATOM     31  O           0     136.096 131.039 144.712  0.00  0.00    -0.362 OA
ATOM     32  H           0     135.241 131.238 145.117  0.00  0.00     0.213 HD
ENDBRANCH  18  31
TORSDOF 5
ENDMDL
MODEL 9
REMARK VINA RESULT:      -6.6      3.891      6.942
REMARK  5 active torsions:
REMARK  status: ('A' for Active; 'I' for Inactive)
REMARK    1  A    between atoms: C_6  and  C_7 
REMARK    2  A    between atoms: C_7  and  O_8 
REMARK    3  A    between atoms: O_8  and  C_9 
REMARK       I    between atoms: C_9  and  N_10 
REMARK    4  A    between atoms: C_24  and  O_25 
REMARK    5  A    between atoms: C_24  and  O_26 
ROOT
ATOM      1  N           0     139.016 129.972 146.918  0.00  0.00    -0.235 N 
ATOM      2  H           0     139.082 129.018 146.748  0.00  0.00     0.174 HD
ATOM      3  H           0     139.812 130.480 147.138  0.00  0.00     0.174 HD
ATOM      4  C           0     137.860 130.568 146.844  0.00  0.00     0.672 C 
ATOM      5  N           0     136.697 129.887 146.529  0.00  0.00    -0.218 N 
ATOM      6  C           0     135.433 130.397 147.049  0.00  0.00     0.151 C 
ATOM      7  C           0     135.236 131.874 146.762  0.00  0.00     0.180 C 
ATOM      8  N           0     134.844 132.046 145.347  0.00  0.00    -0.216 N 
ATOM      9  C           0     135.492 133.160 144.872  0.00  0.00     0.670 C 
ATOM     10  N           0     135.126 133.821 143.809  0.00  0.00    -0.235 N 
ATOM     11  H           0     134.352 133.533 143.301  0.00  0.00     0.174 HD
ATOM     12  H           0     135.628 134.601 143.526  0.00  0.00     0.174 HD
ATOM     13  C           0     136.502 132.706 146.895  0.00  0.00     0.217 C 
ATOM     14  N           0     136.571 133.492 145.652  0.00  0.00    -0.191 N 
ATOM     15  N           0     137.716 131.910 147.080  0.00  0.00    -0.183 N 
ATOM     16  C           0     138.715 132.847 147.626  0.00  0.00     0.150 C 
ATOM     17  C           0     137.912 133.744 148.596  0.00  0.00     0.093 C 
ATOM     18  C           0     136.444 133.651 148.108  0.00  0.00     0.209 C 
ATOM     19  H           0     136.723 129.091 145.974  0.00  0.00     0.178 HD
ATOM     20  H           0     134.240 131.476 144.847  0.00  0.00     0.178 HD
ATOM     21  H           0     137.260 134.135 145.424  0.00  0.00     0.180 HD
ENDROOT
BRANCH   6  22
ATOM     22  C           0     135.399 130.182 148.563  0.00  0.00     0.208 C 
BRANCH  22  23
ATOM     23  O           0     134.097 129.669 148.949  0.00  0.00    -0.302 OA
BRANCH  23  24
ATOM     24  C           0     133.716 128.436 148.561  0.00  0.00     0.360 C 
ATOM     25  N           0     132.612 128.279 147.804  0.00  0.00    -0.341 N 
ATOM     26  C           0     132.198 126.939 147.382  0.00  0.00     0.151 C 
ATOM     27  H           0     132.092 129.054 147.538  0.00  0.00     0.164 HD
ATOM     28  O           0     134.368 127.466 148.893  0.00  0.00    -0.239 OA
ENDBRANCH  23  24
ENDBRANCH  22  23
ENDBRANCH   6  22
BRANCH  18  29
ATOM     29  O           0     135.966 134.941 147.718  0.00  0.00    -0.362 OA
ATOM     30  H           0     136.334 135.577 148.346  0.00  0.00     0.213 HD
ENDBRANCH  18  29
BRANCH  18  31
ATOM     31  O           0     135.613 133.098 149.129  0.00  0.00    -0.362 OA
ATOM     32  H           0     134.714 133.416 148.962  0.00  0.00     0.213 HD
ENDBRANCH  18  31
TORSDOF 5
ENDMDL
