# created with PyMOL 2.3.4
@<TRIPOS>MOLECULE
ligand_out_0001
32 34 1                 
SMALL
USER_CHARGES
@<TRIPOS>ATOM
1	   N	135.882	134.708	146.895	N.3	1	UNK0	-0.235	
2	   N	136.314	135.045	144.607	N.3	1	UNK0	-0.218	
3	   N	134.862	133.863	142.160	N.3	1	UNK0	-0.216	
4	   N	132.653	133.137	141.727	N.3	1	UNK0	-0.235	
5	   N	133.879	132.423	143.618	N.3	1	UNK0	-0.191	
6	   N	135.469	133.002	145.348	N.3	1	UNK0	-0.183	
7	   N	140.079	134.594	140.781	N.pl3	1	UNK0	-0.341	
8	   C	135.885	134.268	145.669	C.3	1	UNK0	0.672	
9	   C	136.877	134.373	143.441	C.3	1	UNK0	0.151	
10	   C	135.984	133.266	142.915	C.3	1	UNK0	0.180	
11	   C	133.732	133.140	142.458	C.3	1	UNK0	0.670	
12	   C	135.300	132.451	144.003	C.3	1	UNK0	0.217	
13	   C	135.154	131.892	146.265	C.3	1	UNK0	0.150	
14	   C	135.756	130.644	145.579	C.3	1	UNK0	0.093	
15	   C	135.850	131.016	144.077	C.3	1	UNK0	0.209	
16	   C	138.231	133.773	143.822	C.2	1	UNK0	0.208	
17	   C	139.568	134.698	142.023	C.2	1	UNK0	0.360	
18	   C	140.649	135.771	140.123	C.3	1	UNK0	0.151	
19	   O	139.044	133.616	142.629	O.2	1	UNK0	-0.302	
20	   O	139.580	135.769	142.597	O.co2	1	UNK0	-0.239	
21	   O	135.049	130.129	143.293	O.2	1	UNK0	-0.362	
22	   O	137.209	130.981	143.639	O.2	1	UNK0	-0.362	
23	   H	136.188	135.609	147.088	 H	1	UNK0	0.174	
24	   H	135.571	134.138	147.615	 H	1	UNK0	0.174	
25	   H	132.614	133.667	140.916	 H	1	UNK0	0.174	
26	   H	131.888	132.603	141.994	 H	1	UNK0	0.174	
27	   H	136.240	136.012	144.638	 H	1	UNK0	0.178	
28	   H	134.914	134.626	141.564	 H	1	UNK0	0.178	
29	   H	133.169	131.973	144.102	 H	1	UNK0	0.180	
30	   H	140.070	133.739	140.323	 H	1	UNK0	0.164	
31	   H	135.379	130.184	142.386	 H	1	UNK0	0.213	
32	   H	137.760	130.976	144.434	 H	1	UNK0	0.213	
@<TRIPOS>BOND
1 1 8 1
2 1 23 1
3 1 24 1
4 2 9 1
5 2 27 1
6 3 11 1
7 3 28 1
8 4 25 1
9 4 26 1
10 5 29 1
11 6 13 1
12 7 18 1
13 7 30 1
14 2 8 1
15 6 8 1
16 9 10 1
17 9 16 1
18 3 10 1
19 10 12 1
20 4 11 1
21 5 11 1
22 5 12 1
23 6 12 1
24 12 15 1
25 13 14 1
26 14 15 1
27 15 21 2
28 15 22 2
29 16 19 2
30 7 17 1
31 17 20 2
32 17 19 2
33 21 31 1
34 22 32 1
@<TRIPOS>SUBSTRUCTURE
1	UNK0	1	GROUP	1 ****	UNK
