# created with PyMOL 2.3.4
@<TRIPOS>MOLECULE
ligand_out_0001
28 30 1                 
SMALL
USER_CHARGES
@<TRIPOS>ATOM
1	   N	135.928	134.700	146.888	N.3	1	UNK0	-0.235	
2	   N	136.333	135.039	144.595	N.3	1	UNK0	-0.218	
3	   N	134.836	133.882	142.165	N.3	1	UNK0	-0.216	
4	   N	132.612	133.185	141.757	N.3	1	UNK0	-0.235	
5	   N	133.855	132.451	143.631	N.3	1	UNK0	-0.191	
6	   N	135.473	133.004	145.341	N.3	1	UNK0	-0.183	
7	   C	135.909	134.263	145.660	C.3	1	UNK0	0.672	
8	   C	136.873	134.363	143.419	C.3	1	UNK0	0.150	
9	   C	135.960	133.270	142.903	C.3	1	UNK0	0.180	
10	   C	133.701	133.173	142.474	C.3	1	UNK0	0.670	
11	   C	135.281	132.459	143.996	C.3	1	UNK0	0.217	
12	   C	135.157	131.894	146.259	C.3	1	UNK0	0.150	
13	   C	135.735	130.641	145.561	C.3	1	UNK0	0.093	
14	   C	135.814	131.018	144.058	C.3	1	UNK0	0.209	
15	   C	138.225	133.746	143.781	C.2	1	UNK0	0.192	
16	   O	134.992	130.144	143.282	O.2	1	UNK0	-0.362	
17	   O	137.166	130.968	143.603	O.2	1	UNK0	-0.362	
18	   O	138.722	132.998	142.669	O.2	1	UNK0	-0.399	
19	   H	136.247	135.595	147.079	 H	1	UNK0	0.174	
20	   H	135.619	134.130	147.610	 H	1	UNK0	0.174	
21	   H	132.569	133.718	140.948	 H	1	UNK0	0.174	
22	   H	131.845	132.659	142.033	 H	1	UNK0	0.174	
23	   H	136.273	136.006	144.631	 H	1	UNK0	0.178	
24	   H	134.889	134.646	141.570	 H	1	UNK0	0.178	
25	   H	133.146	132.007	144.121	 H	1	UNK0	0.180	
26	   H	135.589	129.573	142.779	 H	1	UNK0	0.213	
27	   H	137.725	131.208	144.356	 H	1	UNK0	0.213	
28	   H	139.445	133.513	142.286	 H	1	UNK0	0.209	
@<TRIPOS>BOND
1 1 7 1
2 1 19 1
3 1 20 1
4 2 8 1
5 2 23 1
6 3 10 1
7 3 24 1
8 4 21 1
9 4 22 1
10 5 25 1
11 6 12 1
12 2 7 1
13 6 7 1
14 8 9 1
15 8 15 1
16 3 9 1
17 9 11 1
18 4 10 1
19 5 10 1
20 5 11 1
21 6 11 1
22 11 14 1
23 12 13 1
24 13 14 1
25 14 16 2
26 14 17 2
27 15 18 2
28 16 26 1
29 17 27 1
30 18 28 1
@<TRIPOS>SUBSTRUCTURE
1	UNK0	1	GROUP	1 ****	UNK
