MODEL 1
REMARK VINA RESULT:      -7.3      0.000      0.000
REMARK  4 active torsions:
REMARK  status: ('A' for Active; 'I' for Inactive)
REMARK    1  A    between atoms: C_6  and  C_7 
REMARK    2  A    between atoms: C_7  and  O_8 
REMARK    3  A    between atoms: C_20  and  O_21 
REMARK    4  A    between atoms: C_20  and  O_22 
ROOT
ATOM      1  N           0     135.928 134.700 146.888  0.00  0.00    -0.235 N 
ATOM      2  H           0     136.247 135.595 147.079  0.00  0.00     0.174 HD
ATOM      3  H           0     135.619 134.130 147.610  0.00  0.00     0.174 HD
ATOM      4  C           0     135.909 134.263 145.660  0.00  0.00     0.672 C 
ATOM      5  N           0     136.333 135.039 144.595  0.00  0.00    -0.218 N 
ATOM      6  C           0     136.873 134.363 143.419  0.00  0.00     0.150 C 
ATOM      7  C           0     135.960 133.270 142.903  0.00  0.00     0.180 C 
ATOM      8  N           0     134.836 133.882 142.165  0.00  0.00    -0.216 N 
ATOM      9  C           0     133.701 133.173 142.474  0.00  0.00     0.670 C 
ATOM     10  N           0     132.612 133.185 141.757  0.00  0.00    -0.235 N 
ATOM     11  H           0     132.569 133.718 140.948  0.00  0.00     0.174 HD
ATOM     12  H           0     131.845 132.659 142.033  0.00  0.00     0.174 HD
ATOM     13  C           0     135.281 132.459 143.996  0.00  0.00     0.217 C 
ATOM     14  N           0     133.855 132.451 143.631  0.00  0.00    -0.191 N 
ATOM     15  N           0     135.473 133.004 145.341  0.00  0.00    -0.183 N 
ATOM     16  C           0     135.157 131.894 146.259  0.00  0.00     0.150 C 
ATOM     17  C           0     135.735 130.641 145.561  0.00  0.00     0.093 C 
ATOM     18  C           0     135.814 131.018 144.058  0.00  0.00     0.209 C 
ATOM     19  H           0     136.273 136.006 144.631  0.00  0.00     0.178 HD
ATOM     20  H           0     134.889 134.646 141.570  0.00  0.00     0.178 HD
ATOM     21  H           0     133.146 132.007 144.121  0.00  0.00     0.180 HD
ENDROOT
BRANCH  18  22
ATOM     22  O           0     134.992 130.144 143.282  0.00  0.00    -0.362 OA
ATOM     23  H           0     135.589 129.573 142.779  0.00  0.00     0.213 HD
ENDBRANCH  18  22
BRANCH  18  24
ATOM     24  O           0     137.166 130.968 143.603  0.00  0.00    -0.362 OA
ATOM     25  H           0     137.725 131.208 144.356  0.00  0.00     0.213 HD
ENDBRANCH  18  24
BRANCH   6  26
ATOM     26  C           0     138.225 133.746 143.781  0.00  0.00     0.192 C 
BRANCH  26  27
ATOM     27  O           0     138.722 132.998 142.669  0.00  0.00    -0.399 OA
ATOM     28  H           0     139.445 133.513 142.286  0.00  0.00     0.209 HD
ENDBRANCH  26  27
ENDBRANCH   6  26
TORSDOF 4
ENDMDL
MODEL 2
REMARK VINA RESULT:      -7.1      1.730      2.512
REMARK  4 active torsions:
REMARK  status: ('A' for Active; 'I' for Inactive)
REMARK    1  A    between atoms: C_6  and  C_7 
REMARK    2  A    between atoms: C_7  and  O_8 
REMARK    3  A    between atoms: C_20  and  O_21 
REMARK    4  A    between atoms: C_20  and  O_22 
ROOT
ATOM      1  N           0     134.867 131.904 146.622  0.00  0.00    -0.235 N 
ATOM      2  H           0     135.130 131.960 147.554  0.00  0.00     0.174 HD
ATOM      3  H           0     134.182 131.275 146.348  0.00  0.00     0.174 HD
ATOM      4  C           0     135.433 132.677 145.738  0.00  0.00     0.672 C 
ATOM      5  N           0     136.412 133.594 146.080  0.00  0.00    -0.218 N 
ATOM      6  C           0     137.407 133.952 145.073  0.00  0.00     0.150 C 
ATOM      7  C           0     136.782 134.362 143.754  0.00  0.00     0.180 C 
ATOM      8  N           0     136.254 135.737 143.873  0.00  0.00    -0.216 N 
ATOM      9  C           0     135.057 135.780 143.200  0.00  0.00     0.670 C 
ATOM     10  N           0     134.491 136.879 142.785  0.00  0.00    -0.235 N 
ATOM     11  H           0     134.916 137.735 142.945  0.00  0.00     0.174 HD
ATOM     12  H           0     133.643 136.839 142.314  0.00  0.00     0.174 HD
ATOM     13  C           0     135.568 133.536 143.358  0.00  0.00     0.217 C 
ATOM     14  N           0     134.532 134.526 143.019  0.00  0.00    -0.191 N 
ATOM     15  N           0     135.102 132.630 144.409  0.00  0.00    -0.183 N 
ATOM     16  C           0     134.257 131.637 143.721  0.00  0.00     0.150 C 
ATOM     17  C           0     134.986 131.376 142.381  0.00  0.00     0.093 C 
ATOM     18  C           0     135.853 132.639 142.142  0.00  0.00     0.209 C 
ATOM     19  H           0     136.436 133.988 146.966  0.00  0.00     0.178 HD
ATOM     20  H           0     136.675 136.474 144.340  0.00  0.00     0.178 HD
ATOM     21  H           0     133.633 134.325 142.716  0.00  0.00     0.180 HD
ENDROOT
BRANCH  18  22
ATOM     22  O           0     135.461 133.291 140.933  0.00  0.00    -0.362 OA
ATOM     23  H           0     134.828 133.980 141.179  0.00  0.00     0.213 HD
ENDBRANCH  18  22
BRANCH  18  24
ATOM     24  O           0     137.238 132.292 142.096  0.00  0.00    -0.362 OA
ATOM     25  H           0     137.730 133.117 141.984  0.00  0.00     0.213 HD
ENDBRANCH  18  24
BRANCH   6  26
ATOM     26  C           0     138.321 132.749 144.832  0.00  0.00     0.192 C 
BRANCH  26  27
ATOM     27  O           0     139.228 133.043 143.767  0.00  0.00    -0.399 OA
ATOM     28  H           0     139.629 133.898 143.970  0.00  0.00     0.209 HD
ENDBRANCH  26  27
ENDBRANCH   6  26
TORSDOF 4
ENDMDL
MODEL 3
REMARK VINA RESULT:      -6.7      1.852      3.687
REMARK  4 active torsions:
REMARK  status: ('A' for Active; 'I' for Inactive)
REMARK    1  A    between atoms: C_6  and  C_7 
REMARK    2  A    between atoms: C_7  and  O_8 
REMARK    3  A    between atoms: C_20  and  O_21 
REMARK    4  A    between atoms: C_20  and  O_22 
ROOT
ATOM      1  N           0     134.788 136.654 142.961  0.00  0.00    -0.235 N 
ATOM      2  H           0     133.977 137.063 142.623  0.00  0.00     0.174 HD
ATOM      3  H           0     135.554 137.206 143.185  0.00  0.00     0.174 HD
ATOM      4  C           0     134.850 135.362 143.119  0.00  0.00     0.672 C 
ATOM      5  N           0     133.784 134.531 142.819  0.00  0.00    -0.218 N 
ATOM      6  C           0     134.069 133.157 142.415  0.00  0.00     0.150 C 
ATOM      7  C           0     134.996 132.445 143.380  0.00  0.00     0.180 C 
ATOM      8  N           0     134.235 132.045 144.581  0.00  0.00    -0.216 N 
ATOM      9  C           0     135.042 132.254 145.673  0.00  0.00     0.670 C 
ATOM     10  N           0     134.860 131.695 146.836  0.00  0.00    -0.235 N 
ATOM     11  H           0     134.116 131.087 146.971  0.00  0.00     0.174 HD
ATOM     12  H           0     135.469 131.885 147.566  0.00  0.00     0.174 HD
ATOM     13  C           0     136.113 133.320 143.929  0.00  0.00     0.217 C 
ATOM     14  N           0     136.064 133.125 145.387  0.00  0.00    -0.191 N 
ATOM     15  N           0     135.976 134.736 143.586  0.00  0.00    -0.183 N 
ATOM     16  C           0     137.315 135.318 143.794  0.00  0.00     0.150 C 
ATOM     17  C           0     138.290 134.225 143.298  0.00  0.00     0.093 C 
ATOM     18  C           0     137.490 132.900 143.391  0.00  0.00     0.209 C 
ATOM     19  H           0     132.871 134.854 142.876  0.00  0.00     0.178 HD
ATOM     20  H           0     133.329 131.699 144.597  0.00  0.00     0.178 HD
ATOM     21  H           0     136.655 133.538 146.036  0.00  0.00     0.180 HD
ENDROOT
BRANCH  18  22
ATOM     22  O           0     138.129 131.995 144.294  0.00  0.00    -0.362 OA
ATOM     23  H           0     139.007 132.356 144.477  0.00  0.00     0.213 HD
ENDBRANCH  18  22
BRANCH  18  24
ATOM     24  O           0     137.359 132.306 142.098  0.00  0.00    -0.362 OA
ATOM     25  H           0     136.672 131.628 142.170  0.00  0.00     0.213 HD
ENDBRANCH  18  24
BRANCH   6  26
ATOM     26  C           0     134.718 133.174 141.030  0.00  0.00     0.192 C 
BRANCH  26  27
ATOM     27  O           0     134.044 134.123 140.199  0.00  0.00    -0.399 OA
ATOM     28  H           0     134.017 134.955 140.690  0.00  0.00     0.209 HD
ENDBRANCH  26  27
ENDBRANCH   6  26
TORSDOF 4
ENDMDL
MODEL 4
REMARK VINA RESULT:      -6.4      1.915      2.192
REMARK  4 active torsions:
REMARK  status: ('A' for Active; 'I' for Inactive)
REMARK    1  A    between atoms: C_6  and  C_7 
REMARK    2  A    between atoms: C_7  and  O_8 
REMARK    3  A    between atoms: C_20  and  O_21 
REMARK    4  A    between atoms: C_20  and  O_22 
ROOT
ATOM      1  N           0     135.925 134.757 147.590  0.00  0.00    -0.235 N 
ATOM      2  H           0     136.316 135.642 147.522  0.00  0.00     0.174 HD
ATOM      3  H           0     135.356 134.534 148.342  0.00  0.00     0.174 HD
ATOM      4  C           0     136.164 133.868 146.667  0.00  0.00     0.672 C 
ATOM      5  N           0     136.965 134.139 145.571  0.00  0.00    -0.218 N 
ATOM      6  C           0     137.686 133.031 144.950  0.00  0.00     0.150 C 
ATOM      7  C           0     136.785 131.856 144.627  0.00  0.00     0.180 C 
ATOM      8  N           0     136.001 132.164 143.413  0.00  0.00    -0.216 N 
ATOM      9  C           0     134.731 131.678 143.606  0.00  0.00     0.670 C 
ATOM     10  N           0     133.883 131.443 142.644  0.00  0.00    -0.235 N 
ATOM     11  H           0     134.135 131.611 141.723  0.00  0.00     0.174 HD
ATOM     12  H           0     132.999 131.099 142.850  0.00  0.00     0.174 HD
ATOM     13  C           0     135.728 131.573 145.683  0.00  0.00     0.217 C 
ATOM     14  N           0     134.464 131.472 144.936  0.00  0.00    -0.191 N 
ATOM     15  N           0     135.641 132.602 146.721  0.00  0.00    -0.183 N 
ATOM     16  C           0     134.930 131.963 147.844  0.00  0.00     0.150 C 
ATOM     17  C           0     135.474 130.515 147.868  0.00  0.00     0.093 C 
ATOM     18  C           0     136.001 130.259 146.432  0.00  0.00     0.209 C 
ATOM     19  H           0     137.045 135.042 145.226  0.00  0.00     0.178 HD
ATOM     20  H           0     136.323 132.626 142.624  0.00  0.00     0.178 HD
ATOM     21  H           0     133.592 131.287 145.318  0.00  0.00     0.180 HD
ENDROOT
BRANCH  18  22
ATOM     22  O           0     135.289 129.178 145.827  0.00  0.00    -0.362 OA
ATOM     23  H           0     134.485 129.553 145.442  0.00  0.00     0.213 HD
ENDBRANCH  18  22
BRANCH  18  24
ATOM     24  O           0     137.402 129.982 146.458  0.00  0.00    -0.362 OA
ATOM     25  H           0     137.586 129.401 145.707  0.00  0.00     0.213 HD
ENDBRANCH  18  24
BRANCH   6  26
ATOM     26  C           0     138.786 132.561 145.904  0.00  0.00     0.192 C 
BRANCH  26  27
ATOM     27  O           0     139.440 131.417 145.352  0.00  0.00    -0.399 OA
ATOM     28  H           0     139.290 130.686 145.966  0.00  0.00     0.209 HD
ENDBRANCH  26  27
ENDBRANCH   6  26
TORSDOF 4
ENDMDL
MODEL 5
REMARK VINA RESULT:      -6.3      2.840      4.406
REMARK  4 active torsions:
REMARK  status: ('A' for Active; 'I' for Inactive)
REMARK    1  A    between atoms: C_6  and  C_7 
REMARK    2  A    between atoms: C_7  and  O_8 
REMARK    3  A    between atoms: C_20  and  O_21 
REMARK    4  A    between atoms: C_20  and  O_22 
ROOT
ATOM      1  N           0     135.176 130.554 143.306  0.00  0.00    -0.235 N 
ATOM      2  H           0     135.029 130.403 142.359  0.00  0.00     0.174 HD
ATOM      3  H           0     134.703 130.019 143.962  0.00  0.00     0.174 HD
ATOM      4  C           0     136.013 131.474 143.695  0.00  0.00     0.672 C 
ATOM      5  N           0     136.716 132.259 142.798  0.00  0.00    -0.218 N 
ATOM      6  C           0     137.114 133.601 143.215  0.00  0.00     0.150 C 
ATOM      7  C           0     137.832 133.608 144.550  0.00  0.00     0.180 C 
ATOM      8  N           0     139.222 133.142 144.356  0.00  0.00    -0.216 N 
ATOM      9  C           0     139.544 132.344 145.426  0.00  0.00     0.670 C 
ATOM     10  N           0     140.764 132.055 145.783  0.00  0.00    -0.235 N 
ATOM     11  H           0     141.514 132.412 145.282  0.00  0.00     0.174 HD
ATOM     12  H           0     140.922 131.483 146.551  0.00  0.00     0.174 HD
ATOM     13  C           0     137.260 132.636 145.570  0.00  0.00     0.217 C 
ATOM     14  N           0     138.422 131.886 146.072  0.00  0.00    -0.191 N 
ATOM     15  N           0     136.250 131.730 145.021  0.00  0.00    -0.183 N 
ATOM     16  C           0     135.517 131.209 146.189  0.00  0.00     0.150 C 
ATOM     17  C           0     135.407 132.421 147.144  0.00  0.00     0.093 C 
ATOM     18  C           0     136.566 133.365 146.732  0.00  0.00     0.209 C 
ATOM     19  H           0     136.938 131.926 141.914  0.00  0.00     0.178 HD
ATOM     20  H           0     139.801 133.361 143.610  0.00  0.00     0.178 HD
ATOM     21  H           0     138.401 131.190 146.747  0.00  0.00     0.180 HD
ENDROOT
BRANCH  18  22
ATOM     22  O           0     137.470 133.548 147.823  0.00  0.00    -0.362 OA
ATOM     23  H           0     136.950 133.465 148.635  0.00  0.00     0.213 HD
ENDBRANCH  18  22
BRANCH  18  24
ATOM     24  O           0     136.052 134.624 146.293  0.00  0.00    -0.362 OA
ATOM     25  H           0     135.996 134.582 145.328  0.00  0.00     0.213 HD
ENDBRANCH  18  24
BRANCH   6  26
ATOM     26  C           0     135.863 134.474 143.325  0.00  0.00     0.192 C 
BRANCH  26  27
ATOM     27  O           0     136.244 135.819 143.626  0.00  0.00    -0.399 OA
ATOM     28  H           0     136.660 136.176 142.831  0.00  0.00     0.209 HD
ENDBRANCH  26  27
ENDBRANCH   6  26
TORSDOF 4
ENDMDL
MODEL 6
REMARK VINA RESULT:      -6.2      2.434      3.808
REMARK  4 active torsions:
REMARK  status: ('A' for Active; 'I' for Inactive)
REMARK    1  A    between atoms: C_6  and  C_7 
REMARK    2  A    between atoms: C_7  and  O_8 
REMARK    3  A    between atoms: C_20  and  O_21 
REMARK    4  A    between atoms: C_20  and  O_22 
ROOT
ATOM      1  N           0     138.689 130.683 145.752  0.00  0.00    -0.235 N 
ATOM      2  H           0     138.739 130.050 146.484  0.00  0.00     0.174 HD
ATOM      3  H           0     139.468 130.850 145.199  0.00  0.00     0.174 HD
ATOM      4  C           0     137.571 131.307 145.507  0.00  0.00     0.672 C 
ATOM      5  N           0     136.430 131.100 146.262  0.00  0.00    -0.218 N 
ATOM      6  C           0     135.467 132.192 146.377  0.00  0.00     0.150 C 
ATOM      7  C           0     135.074 132.767 145.031  0.00  0.00     0.180 C 
ATOM      8  N           0     134.117 131.852 144.373  0.00  0.00    -0.216 N 
ATOM      9  C           0     134.432 131.814 143.036  0.00  0.00     0.670 C 
ATOM     10  N           0     133.613 131.416 142.103  0.00  0.00    -0.235 N 
ATOM     11  H           0     132.718 131.124 142.334  0.00  0.00     0.174 HD
ATOM     12  H           0     133.900 131.415 141.176  0.00  0.00     0.174 HD
ATOM     13  C           0     136.221 132.870 144.038  0.00  0.00     0.217 C 
ATOM     14  N           0     135.714 132.245 142.806  0.00  0.00    -0.191 N 
ATOM     15  N           0     137.451 132.216 144.488  0.00  0.00    -0.183 N 
ATOM     16  C           0     138.524 132.789 143.654  0.00  0.00     0.150 C 
ATOM     17  C           0     138.142 134.281 143.508  0.00  0.00     0.093 C 
ATOM     18  C           0     136.613 134.331 143.761  0.00  0.00     0.209 C 
ATOM     19  H           0     136.275 130.251 146.705  0.00  0.00     0.178 HD
ATOM     20  H           0     133.397 131.367 144.805  0.00  0.00     0.178 HD
ATOM     21  H           0     136.201 132.156 141.972  0.00  0.00     0.180 HD
ENDROOT
BRANCH  18  22
ATOM     22  O           0     135.933 134.824 142.605  0.00  0.00    -0.362 OA
ATOM     23  H           0     136.502 135.500 142.213  0.00  0.00     0.213 HD
ENDBRANCH  18  22
BRANCH  18  24
ATOM     24  O           0     136.322 135.147 144.897  0.00  0.00    -0.362 OA
ATOM     25  H           0     137.033 135.801 144.961  0.00  0.00     0.213 HD
ENDBRANCH  18  24
BRANCH   6  26
ATOM     26  C           0     136.083 133.306 147.226  0.00  0.00     0.192 C 
BRANCH  26  27
ATOM     27  O           0     135.621 133.188 148.574  0.00  0.00    -0.399 OA
ATOM     28  H           0     135.065 132.399 148.611  0.00  0.00     0.209 HD
ENDBRANCH  26  27
ENDBRANCH   6  26
TORSDOF 4
ENDMDL
MODEL 7
REMARK VINA RESULT:      -6.2      1.438      4.218
REMARK  4 active torsions:
REMARK  status: ('A' for Active; 'I' for Inactive)
REMARK    1  A    between atoms: C_6  and  C_7 
REMARK    2  A    between atoms: C_7  and  O_8 
REMARK    3  A    between atoms: C_20  and  O_21 
REMARK    4  A    between atoms: C_20  and  O_22 
ROOT
ATOM      1  N           0     134.746 134.731 142.310  0.00  0.00    -0.235 N 
ATOM      2  H           0     133.840 134.735 141.965  0.00  0.00     0.174 HD
ATOM      3  H           0     135.428 135.278 141.889  0.00  0.00     0.174 HD
ATOM      4  C           0     135.046 133.995 143.343  0.00  0.00     0.672 C 
ATOM      5  N           0     134.108 133.202 143.981  0.00  0.00    -0.218 N 
ATOM      6  C           0     134.569 131.995 144.661  0.00  0.00     0.150 C 
ATOM      7  C           0     135.720 132.263 145.610  0.00  0.00     0.180 C 
ATOM      8  N           0     135.198 132.885 146.844  0.00  0.00    -0.216 N 
ATOM      9  C           0     136.091 133.855 147.229  0.00  0.00     0.670 C 
ATOM     10  N           0     136.158 134.353 148.432  0.00  0.00    -0.235 N 
ATOM     11  H           0     135.552 134.039 149.122  0.00  0.00     0.174 HD
ATOM     12  H           0     136.815 135.037 148.638  0.00  0.00     0.174 HD
ATOM     13  C           0     136.732 133.272 145.091  0.00  0.00     0.217 C 
ATOM     14  N           0     136.904 134.235 146.191  0.00  0.00    -0.191 N 
ATOM     15  N           0     136.314 133.950 143.863  0.00  0.00    -0.183 N 
ATOM     16  C           0     137.549 134.515 143.289  0.00  0.00     0.150 C 
ATOM     17  C           0     138.624 133.436 143.557  0.00  0.00     0.093 C 
ATOM     18  C           0     138.080 132.614 144.755  0.00  0.00     0.209 C 
ATOM     19  H           0     133.168 133.444 143.976  0.00  0.00     0.178 HD
ATOM     20  H           0     134.375 132.652 147.300  0.00  0.00     0.178 HD
ATOM     21  H           0     137.495 135.004 146.185  0.00  0.00     0.180 HD
ENDROOT
BRANCH  18  22
ATOM     22  O           0     138.974 132.703 145.866  0.00  0.00    -0.362 OA
ATOM     23  H           0     138.890 131.875 146.360  0.00  0.00     0.213 HD
ENDBRANCH  18  22
BRANCH  18  24
ATOM     24  O           0     137.887 131.250 144.377  0.00  0.00    -0.362 OA
ATOM     25  H           0     137.660 131.250 143.436  0.00  0.00     0.213 HD
ENDBRANCH  18  24
BRANCH   6  26
ATOM     26  C           0     135.022 130.980 143.610  0.00  0.00     0.192 C 
BRANCH  26  27
ATOM     27  O           0     133.998 130.822 142.625  0.00  0.00    -0.399 OA
ATOM     28  H           0     133.782 131.707 142.304  0.00  0.00     0.209 HD
ENDBRANCH  26  27
ENDBRANCH   6  26
TORSDOF 4
ENDMDL
MODEL 8
REMARK VINA RESULT:      -6.2      8.449     10.769
REMARK  4 active torsions:
REMARK  status: ('A' for Active; 'I' for Inactive)
REMARK    1  A    between atoms: C_6  and  C_7 
REMARK    2  A    between atoms: C_7  and  O_8 
REMARK    3  A    between atoms: C_20  and  O_21 
REMARK    4  A    between atoms: C_20  and  O_22 
ROOT
ATOM      1  N           0     132.304 137.423 132.493  0.00  0.00    -0.235 N 
ATOM      2  H           0     131.552 138.027 132.388  0.00  0.00     0.174 HD
ATOM      3  H           0     133.065 137.487 131.894  0.00  0.00     0.174 HD
ATOM      4  C           0     132.294 136.529 133.440  0.00  0.00     0.672 C 
ATOM      5  N           0     131.235 136.402 134.323  0.00  0.00    -0.218 N 
ATOM      6  C           0     130.973 135.088 134.905  0.00  0.00     0.150 C 
ATOM      7  C           0     132.210 134.466 135.522  0.00  0.00     0.180 C 
ATOM      8  N           0     132.479 135.107 136.826  0.00  0.00    -0.216 N 
ATOM      9  C           0     133.839 135.265 136.938  0.00  0.00     0.670 C 
ATOM     10  N           0     134.463 135.453 138.067  0.00  0.00    -0.235 N 
ATOM     11  H           0     133.964 135.488 138.898  0.00  0.00     0.174 HD
ATOM     12  H           0     135.428 135.556 138.075  0.00  0.00     0.174 HD
ATOM     13  C           0     133.486 134.701 134.729  0.00  0.00     0.217 C 
ATOM     14  N           0     134.458 135.201 135.715  0.00  0.00    -0.191 N 
ATOM     15  N           0     133.329 135.649 133.624  0.00  0.00    -0.183 N 
ATOM     16  C           0     134.481 135.408 132.737  0.00  0.00     0.150 C 
ATOM     17  C           0     134.670 133.873 132.761  0.00  0.00     0.093 C 
ATOM     18  C           0     134.011 133.407 134.085  0.00  0.00     0.209 C 
ATOM     19  H           0     130.681 137.166 134.548  0.00  0.00     0.178 HD
ATOM     20  H           0     131.816 135.370 137.483  0.00  0.00     0.178 HD
ATOM     21  H           0     135.380 135.439 135.533  0.00  0.00     0.180 HD
ENDROOT
BRANCH  18  22
ATOM     22  O           0     134.978 132.782 134.930  0.00  0.00    -0.362 OA
ATOM     23  H           0     135.847 133.090 134.636  0.00  0.00     0.213 HD
ENDBRANCH  18  22
BRANCH  18  24
ATOM     24  O           0     132.930 132.513 133.816  0.00  0.00    -0.362 OA
ATOM     25  H           0     132.143 133.059 133.676  0.00  0.00     0.213 HD
ENDBRANCH  18  24
BRANCH   6  26
ATOM     26  C           0     130.447 134.159 133.810  0.00  0.00     0.192 C 
BRANCH  26  27
ATOM     27  O           0     130.164 132.874 134.370  0.00  0.00    -0.399 OA
ATOM     28  H           0     129.821 133.027 135.260  0.00  0.00     0.209 HD
ENDBRANCH  26  27
ENDBRANCH   6  26
TORSDOF 4
ENDMDL
MODEL 9
REMARK VINA RESULT:      -6.1      9.491     11.092
REMARK  4 active torsions:
REMARK  status: ('A' for Active; 'I' for Inactive)
REMARK    1  A    between atoms: C_6  and  C_7 
REMARK    2  A    between atoms: C_7  and  O_8 
REMARK    3  A    between atoms: C_20  and  O_21 
REMARK    4  A    between atoms: C_20  and  O_22 
ROOT
ATOM      1  N           0     134.487 132.855 132.649  0.00  0.00    -0.235 N 
ATOM      2  H           0     134.525 132.102 132.039  0.00  0.00     0.174 HD
ATOM      3  H           0     135.300 133.325 132.892  0.00  0.00     0.174 HD
ATOM      4  C           0     133.342 133.238 133.140  0.00  0.00     0.672 C 
ATOM      5  N           0     132.154 132.603 132.820  0.00  0.00    -0.218 N 
ATOM      6  C           0     131.071 132.627 133.800  0.00  0.00     0.150 C 
ATOM      7  C           0     130.768 134.024 134.302  0.00  0.00     0.180 C 
ATOM      8  N           0     129.995 134.753 133.275  0.00  0.00    -0.216 N 
ATOM      9  C           0     130.458 136.046 133.248  0.00  0.00     0.670 C 
ATOM     10  N           0     129.796 137.050 132.745  0.00  0.00    -0.235 N 
ATOM     11  H           0     128.918 136.908 132.359  0.00  0.00     0.174 HD
ATOM     12  H           0     130.181 137.940 132.759  0.00  0.00     0.174 HD
ATOM     13  C           0     132.000 134.890 134.515  0.00  0.00     0.217 C 
ATOM     14  N           0     131.703 136.150 133.815  0.00  0.00    -0.191 N 
ATOM     15  N           0     133.237 134.290 134.011  0.00  0.00    -0.183 N 
ATOM     16  C           0     134.327 135.020 134.685  0.00  0.00     0.150 C 
ATOM     17  C           0     133.802 135.252 136.122  0.00  0.00     0.093 C 
ATOM     18  C           0     132.258 135.167 136.006  0.00  0.00     0.209 C 
ATOM     19  H           0     132.044 132.155 131.967  0.00  0.00     0.178 HD
ATOM     20  H           0     129.290 134.386 132.721  0.00  0.00     0.178 HD
ATOM     21  H           0     132.286 136.923 133.766  0.00  0.00     0.180 HD
ENDROOT
BRANCH  18  22
ATOM     22  O           0     131.660 136.404 136.398  0.00  0.00    -0.362 OA
ATOM     23  H           0     132.070 136.658 137.237  0.00  0.00     0.213 HD
ENDBRANCH  18  22
BRANCH  18  24
ATOM     24  O           0     131.757 134.094 136.804  0.00  0.00    -0.362 OA
ATOM     25  H           0     130.949 134.415 137.229  0.00  0.00     0.213 HD
ENDBRANCH  18  24
BRANCH   6  26
ATOM     26  C           0     131.464 131.750 134.991  0.00  0.00     0.192 C 
BRANCH  26  27
ATOM     27  O           0     130.338 131.587 135.856  0.00  0.00    -0.399 OA
ATOM     28  H           0     129.580 131.980 135.404  0.00  0.00     0.209 HD
ENDBRANCH  26  27
ENDBRANCH   6  26
TORSDOF 4
ENDMDL
