# created with PyMOL 2.3.4
@<TRIPOS>MOLECULE
ligand_out_0001
31 33 1                 
SMALL
USER_CHARGES
@<TRIPOS>ATOM
1	   N	135.460	136.685	143.226	N.3	1	UNK0	-0.235	
2	   N	133.961	134.900	143.532	N.3	1	UNK0	-0.218	
3	   N	134.186	132.435	145.374	N.3	1	UNK0	-0.216	
4	   N	135.222	132.012	147.460	N.3	1	UNK0	-0.235	
5	   N	136.359	133.038	145.657	N.3	1	UNK0	-0.191	
6	   N	136.257	134.548	143.765	N.3	1	UNK0	-0.179	
7	   C	135.237	135.430	143.499	C.3	1	UNK0	0.672	
8	   C	133.788	133.486	143.209	C.3	1	UNK0	0.151	
9	   C	134.716	132.589	144.003	C.3	1	UNK0	0.180	
10	   C	135.254	132.467	146.238	C.3	1	UNK0	0.670	
11	   C	136.107	133.163	144.212	C.3	1	UNK0	0.217	
12	   C	137.700	134.783	143.604	C.3	1	UNK0	0.106	
13	   C	138.275	135.408	144.876	C.3	1	UNK0	0.033	
14	   C	138.348	133.405	143.351	C.3	1	UNK0	0.098	
15	   C	137.177	132.386	143.421	C.3	1	UNK0	0.210	
16	   C	134.062	133.283	141.717	C.2	1	UNK0	0.206	
17	   C	133.231	134.974	140.197	C.2	1	UNK0	0.254	
18	   C	133.207	134.882	138.693	C.3	1	UNK0	0.126	
19	   O	132.992	133.883	140.941	O.2	1	UNK0	-0.320	
20	   O	133.465	136.031	140.734	O.co2	1	UNK0	-0.266	
21	   O	137.575	131.202	144.116	O.2	1	UNK0	-0.362	
22	   O	136.702	132.070	142.110	O.2	1	UNK0	-0.362	
23	   H	134.716	137.279	143.039	 H	1	UNK0	0.174	
24	   H	136.368	137.025	143.215	 H	1	UNK0	0.174	
25	   H	134.407	131.620	147.809	 H	1	UNK0	0.174	
26	   H	136.014	132.065	148.017	 H	1	UNK0	0.174	
27	   H	133.199	135.453	143.766	 H	1	UNK0	0.178	
28	   H	133.254	132.330	145.620	 H	1	UNK0	0.178	
29	   H	137.168	133.308	146.118	 H	1	UNK0	0.180	
30	   H	137.859	131.477	144.998	 H	1	UNK0	0.213	
31	   H	137.402	132.321	141.491	 H	1	UNK0	0.213	
@<TRIPOS>BOND
1 1 7 1
2 1 23 1
3 1 24 1
4 2 8 1
5 2 27 1
6 3 10 1
7 3 28 1
8 4 25 1
9 4 26 1
10 5 29 1
11 6 12 1
12 2 7 1
13 6 7 1
14 8 9 1
15 8 16 1
16 3 9 1
17 9 11 1
18 4 10 1
19 5 10 1
20 5 11 1
21 6 11 1
22 11 15 1
23 12 13 1
24 12 14 1
25 14 15 1
26 15 21 2
27 15 22 2
28 16 19 2
29 17 18 1
30 17 20 2
31 17 19 2
32 21 30 1
33 22 31 1
@<TRIPOS>SUBSTRUCTURE
1	UNK0	1	GROUP	1 ****	UNK
