# created with PyMOL 2.3.4
@<TRIPOS>MOLECULE
ligand_out_0001
32 34 1                 
SMALL
USER_CHARGES
@<TRIPOS>ATOM
1	   N	130.663	131.703	135.356	N.3	1	UNK0	-0.235	
2	   N	129.389	130.481	133.803	N.3	1	UNK0	-0.218	
3	   N	129.962	127.738	132.512	N.3	1	UNK0	-0.211	
4	   N	131.118	125.791	133.198	N.3	1	UNK0	-0.235	
5	   N	132.062	127.955	133.354	N.3	1	UNK0	-0.191	
6	   N	131.717	130.312	133.792	N.3	1	UNK0	-0.183	
7	   N	128.544	133.674	132.559	N.pl3	1	UNK0	-0.346	
8	   C	130.595	130.865	134.360	C.3	1	UNK0	0.672	
9	   C	129.363	130.102	132.393	C.3	1	UNK0	0.151	
10	   C	130.419	129.068	132.051	C.3	1	UNK0	0.182	
11	   C	128.596	127.216	132.429	C.3	1	UNK0	0.169	
12	   C	131.052	127.083	133.032	C.3	1	UNK0	0.672	
13	   C	131.742	129.267	132.769	C.3	1	UNK0	0.217	
14	   C	133.117	130.688	134.042	C.3	1	UNK0	0.150	
15	   C	133.906	130.333	132.766	C.3	1	UNK0	0.093	
16	   C	132.863	129.701	131.804	C.3	1	UNK0	0.209	
17	   C	129.603	131.350	131.542	C.2	1	UNK0	0.208	
18	   C	127.823	132.992	131.647	C.2	1	UNK0	0.358	
19	   O	128.329	131.877	131.086	O.2	1	UNK0	-0.302	
20	   O	126.717	133.383	131.330	O.co2	1	UNK0	-0.239	
21	   O	133.418	128.577	131.119	O.2	1	UNK0	-0.362	
22	   O	132.377	130.672	130.875	O.2	1	UNK0	-0.362	
23	   H	129.851	132.078	135.731	 H	1	UNK0	0.174	
24	   H	131.525	131.948	135.726	 H	1	UNK0	0.174	
25	   H	130.367	125.231	132.949	 H	1	UNK0	0.174	
26	   H	131.919	125.391	133.572	 H	1	UNK0	0.174	
27	   H	128.578	130.463	134.337	 H	1	UNK0	0.178	
28	   H	132.852	127.742	133.874	 H	1	UNK0	0.180	
29	   H	129.426	133.362	132.812	 H	1	UNK0	0.161	
30	   H	128.179	134.477	132.962	 H	1	UNK0	0.161	
31	   H	132.675	128.025	130.839	 H	1	UNK0	0.213	
32	   H	132.619	130.360	129.992	 H	1	UNK0	0.213	
@<TRIPOS>BOND
1 1 8 1
2 1 23 1
3 1 24 1
4 2 9 1
5 2 27 1
6 3 11 1
7 3 12 1
8 4 25 1
9 4 26 1
10 5 28 1
11 6 14 1
12 7 29 1
13 7 30 1
14 2 8 1
15 6 8 1
16 9 10 1
17 9 17 1
18 3 10 1
19 10 13 1
20 4 12 1
21 5 12 1
22 5 13 1
23 6 13 1
24 13 16 1
25 14 15 1
26 15 16 1
27 16 21 2
28 16 22 2
29 17 19 2
30 7 18 1
31 18 20 2
32 18 19 2
33 21 31 1
34 22 32 1
@<TRIPOS>SUBSTRUCTURE
1	UNK0	1	GROUP	1 ****	UNK
