MODEL 1
REMARK VINA RESULT:      -7.0      0.000      0.000
REMARK  5 active torsions:
REMARK  status: ('A' for Active; 'I' for Inactive)
REMARK    1  A    between atoms: C_6  and  C_7 
REMARK    2  A    between atoms: C_7  and  O_8 
REMARK    3  A    between atoms: O_8  and  C_9 
REMARK       I    between atoms: C_9  and  N_10 
REMARK    4  A    between atoms: C_24  and  O_25 
REMARK    5  A    between atoms: C_24  and  O_26 
ROOT
ATOM      1  N           0     130.663 131.703 135.356  0.00  0.00    -0.235 N 
ATOM      2  H           0     129.851 132.078 135.731  0.00  0.00     0.174 HD
ATOM      3  H           0     131.525 131.948 135.726  0.00  0.00     0.174 HD
ATOM      4  C           0     130.595 130.865 134.360  0.00  0.00     0.672 C 
ATOM      5  N           0     129.389 130.481 133.803  0.00  0.00    -0.218 N 
ATOM      6  C           0     129.363 130.102 132.393  0.00  0.00     0.151 C 
ATOM      7  C           0     130.419 129.068 132.051  0.00  0.00     0.182 C 
ATOM      8  N           0     129.962 127.738 132.512  0.00  0.00    -0.211 N 
ATOM      9  C           0     128.596 127.216 132.429  0.00  0.00     0.169 C 
ATOM     10  C           0     131.052 127.083 133.032  0.00  0.00     0.672 C 
ATOM     11  N           0     131.118 125.791 133.198  0.00  0.00    -0.235 N 
ATOM     12  H           0     130.367 125.231 132.949  0.00  0.00     0.174 HD
ATOM     13  H           0     131.919 125.391 133.572  0.00  0.00     0.174 HD
ATOM     14  C           0     131.742 129.267 132.769  0.00  0.00     0.217 C 
ATOM     15  N           0     132.062 127.955 133.354  0.00  0.00    -0.191 N 
ATOM     16  N           0     131.717 130.312 133.792  0.00  0.00    -0.183 N 
ATOM     17  C           0     133.117 130.688 134.042  0.00  0.00     0.150 C 
ATOM     18  C           0     133.906 130.333 132.766  0.00  0.00     0.093 C 
ATOM     19  C           0     132.863 129.701 131.804  0.00  0.00     0.209 C 
ATOM     20  H           0     128.578 130.463 134.337  0.00  0.00     0.178 HD
ATOM     21  H           0     132.852 127.742 133.874  0.00  0.00     0.180 HD
ENDROOT
BRANCH   6  22
ATOM     22  C           0     129.603 131.350 131.542  0.00  0.00     0.208 C 
BRANCH  22  23
ATOM     23  O           0     128.329 131.877 131.086  0.00  0.00    -0.302 OA
BRANCH  23  24
ATOM     24  C           0     127.823 132.992 131.647  0.00  0.00     0.358 C 
ATOM     25  N           0     128.544 133.674 132.559  0.00  0.00    -0.346 N 
ATOM     26  H           0     129.426 133.362 132.812  0.00  0.00     0.161 HD
ATOM     27  H           0     128.179 134.477 132.962  0.00  0.00     0.161 HD
ATOM     28  O           0     126.717 133.383 131.330  0.00  0.00    -0.239 OA
ENDBRANCH  23  24
ENDBRANCH  22  23
ENDBRANCH   6  22
BRANCH  19  29
ATOM     29  O           0     133.418 128.577 131.119  0.00  0.00    -0.362 OA
ATOM     30  H           0     132.675 128.025 130.839  0.00  0.00     0.213 HD
ENDBRANCH  19  29
BRANCH  19  31
ATOM     31  O           0     132.377 130.672 130.875  0.00  0.00    -0.362 OA
ATOM     32  H           0     132.619 130.360 129.992  0.00  0.00     0.213 HD
ENDBRANCH  19  31
TORSDOF 5
ENDMDL
MODEL 2
REMARK VINA RESULT:      -6.7      3.076      4.982
REMARK  5 active torsions:
REMARK  status: ('A' for Active; 'I' for Inactive)
REMARK    1  A    between atoms: C_6  and  C_7 
REMARK    2  A    between atoms: C_7  and  O_8 
REMARK    3  A    between atoms: O_8  and  C_9 
REMARK       I    between atoms: C_9  and  N_10 
REMARK    4  A    between atoms: C_24  and  O_25 
REMARK    5  A    between atoms: C_24  and  O_26 
ROOT
ATOM      1  N           0     129.838 134.739 132.024  0.00  0.00    -0.235 N 
ATOM      2  H           0     130.022 135.677 132.187  0.00  0.00     0.174 HD
ATOM      3  H           0     129.101 134.482 131.449  0.00  0.00     0.174 HD
ATOM      4  C           0     130.586 133.823 132.574  0.00  0.00     0.672 C 
ATOM      5  N           0     131.652 134.140 133.396  0.00  0.00    -0.218 N 
ATOM      6  C           0     132.029 133.193 134.441  0.00  0.00     0.151 C 
ATOM      7  C           0     132.216 131.785 133.908  0.00  0.00     0.182 C 
ATOM      8  N           0     133.526 131.696 133.225  0.00  0.00    -0.211 N 
ATOM      9  C           0     134.777 132.314 133.669  0.00  0.00     0.169 C 
ATOM     10  C           0     133.354 130.927 132.100  0.00  0.00     0.672 C 
ATOM     11  N           0     134.327 130.341 131.458  0.00  0.00    -0.235 N 
ATOM     12  H           0     135.240 130.434 131.772  0.00  0.00     0.174 HD
ATOM     13  H           0     134.137 129.811 130.668  0.00  0.00     0.174 HD
ATOM     14  C           0     131.218 131.388 132.834  0.00  0.00     0.217 C 
ATOM     15  N           0     132.033 130.852 131.733  0.00  0.00    -0.191 N 
ATOM     16  N           0     130.362 132.482 132.377  0.00  0.00    -0.183 N 
ATOM     17  C           0     129.198 131.861 131.726  0.00  0.00     0.150 C 
ATOM     18  C           0     129.053 130.449 132.331  0.00  0.00     0.093 C 
ATOM     19  C           0     130.232 130.311 133.333  0.00  0.00     0.209 C 
ATOM     20  H           0     132.137 134.973 133.282  0.00  0.00     0.178 HD
ATOM     21  H           0     131.696 130.503 130.894  0.00  0.00     0.180 HD
ENDROOT
BRANCH   6  22
ATOM     22  C           0     130.934 133.172 135.509  0.00  0.00     0.208 C 
BRANCH  22  23
ATOM     23  O           0     131.236 132.147 136.491  0.00  0.00    -0.302 OA
BRANCH  23  24
ATOM     24  C           0     130.490 132.044 137.608  0.00  0.00     0.358 C 
ATOM     25  N           0     130.841 132.724 138.717  0.00  0.00    -0.346 N 
ATOM     26  H           0     131.632 133.287 138.712  0.00  0.00     0.161 HD
ATOM     27  H           0     130.304 132.651 139.521  0.00  0.00     0.161 HD
ATOM     28  O           0     129.499 131.341 137.615  0.00  0.00    -0.239 OA
ENDBRANCH  23  24
ENDBRANCH  22  23
ENDBRANCH   6  22
BRANCH  19  29
ATOM     29  O           0     130.812 129.008 133.259  0.00  0.00    -0.362 OA
ATOM     30  H           0     131.742 129.101 133.506  0.00  0.00     0.213 HD
ENDBRANCH  19  29
BRANCH  19  31
ATOM     31  O           0     129.803 130.602 134.664  0.00  0.00    -0.362 OA
ATOM     32  H           0     130.168 131.469 134.892  0.00  0.00     0.213 HD
ENDBRANCH  19  31
TORSDOF 5
ENDMDL
MODEL 3
REMARK VINA RESULT:      -6.7     13.402     15.656
REMARK  5 active torsions:
REMARK  status: ('A' for Active; 'I' for Inactive)
REMARK    1  A    between atoms: C_6  and  C_7 
REMARK    2  A    between atoms: C_7  and  O_8 
REMARK    3  A    between atoms: O_8  and  C_9 
REMARK       I    between atoms: C_9  and  N_10 
REMARK    4  A    between atoms: C_24  and  O_25 
REMARK    5  A    between atoms: C_24  and  O_26 
ROOT
ATOM      1  N           0     135.880 134.666 147.875  0.00  0.00    -0.235 N 
ATOM      2  H           0     136.292 135.541 147.809  0.00  0.00     0.174 HD
ATOM      3  H           0     135.251 134.479 148.589  0.00  0.00     0.174 HD
ATOM      4  C           0     136.165 133.742 147.000  0.00  0.00     0.672 C 
ATOM      5  N           0     137.050 133.963 145.961  0.00  0.00    -0.218 N 
ATOM      6  C           0     137.801 132.827 145.434  0.00  0.00     0.151 C 
ATOM      7  C           0     136.908 131.652 145.083  0.00  0.00     0.182 C 
ATOM      8  N           0     136.236 131.924 143.793  0.00  0.00    -0.211 N 
ATOM      9  C           0     136.839 132.558 142.620  0.00  0.00     0.169 C 
ATOM     10  C           0     134.943 131.472 143.897  0.00  0.00     0.672 C 
ATOM     11  N           0     134.173 131.214 142.876  0.00  0.00    -0.235 N 
ATOM     12  H           0     134.507 131.339 141.974  0.00  0.00     0.174 HD
ATOM     13  H           0     133.268 130.897 143.019  0.00  0.00     0.174 HD
ATOM     14  C           0     135.760 131.432 146.053  0.00  0.00     0.217 C 
ATOM     15  N           0     134.560 131.325 145.207  0.00  0.00    -0.191 N 
ATOM     16  N           0     135.611 132.487 147.055  0.00  0.00    -0.183 N 
ATOM     17  C           0     134.808 131.917 148.148  0.00  0.00     0.150 C 
ATOM     18  C           0     135.006 130.388 148.092  0.00  0.00     0.093 C 
ATOM     19  C           0     135.940 130.141 146.877  0.00  0.00     0.209 C 
ATOM     20  H           0     137.169 134.852 145.589  0.00  0.00     0.178 HD
ATOM     21  H           0     133.656 131.174 145.521  0.00  0.00     0.180 HD
ENDROOT
BRANCH   6  22
ATOM     22  C           0     138.816 132.375 146.486  0.00  0.00     0.208 C 
BRANCH  22  23
ATOM     23  O           0     139.562 131.237 145.981  0.00  0.00    -0.302 OA
BRANCH  23  24
ATOM     24  C           0     140.591 130.736 146.692  0.00  0.00     0.358 C 
ATOM     25  N           0     141.029 129.484 146.453  0.00  0.00    -0.346 N 
ATOM     26  H           0     140.603 128.944 145.769  0.00  0.00     0.161 HD
ATOM     27  H           0     141.770 129.124 146.965  0.00  0.00     0.161 HD
ATOM     28  O           0     141.124 131.414 147.548  0.00  0.00    -0.239 OA
ENDBRANCH  23  24
ENDBRANCH  22  23
ENDBRANCH   6  22
BRANCH  19  29
ATOM     29  O           0     135.520 128.994 146.137  0.00  0.00    -0.362 OA
ATOM     30  H           0     135.239 129.310 145.267  0.00  0.00     0.213 HD
ENDBRANCH  19  29
BRANCH  19  31
ATOM     31  O           0     137.298 130.003 147.301  0.00  0.00    -0.362 OA
ATOM     32  H           0     137.400 130.548 148.093  0.00  0.00     0.213 HD
ENDBRANCH  19  31
TORSDOF 5
ENDMDL
MODEL 4
REMARK VINA RESULT:      -6.6     14.495     16.076
REMARK  5 active torsions:
REMARK  status: ('A' for Active; 'I' for Inactive)
REMARK    1  A    between atoms: C_6  and  C_7 
REMARK    2  A    between atoms: C_7  and  O_8 
REMARK    3  A    between atoms: O_8  and  C_9 
REMARK       I    between atoms: C_9  and  N_10 
REMARK    4  A    between atoms: C_24  and  O_25 
REMARK    5  A    between atoms: C_24  and  O_26 
ROOT
ATOM      1  N           0     134.041 131.872 149.379  0.00  0.00    -0.235 N 
ATOM      2  H           0     133.534 131.528 150.131  0.00  0.00     0.174 HD
ATOM      3  H           0     133.924 132.792 149.095  0.00  0.00     0.174 HD
ATOM      4  C           0     134.886 131.100 148.754  0.00  0.00     0.672 C 
ATOM      5  N           0     135.092 129.784 149.125  0.00  0.00    -0.218 N 
ATOM      6  C           0     135.501 128.828 148.100  0.00  0.00     0.151 C 
ATOM      7  C           0     136.696 129.310 147.299  0.00  0.00     0.182 C 
ATOM      8  N           0     137.925 129.118 148.100  0.00  0.00    -0.211 N 
ATOM      9  C           0     138.231 127.967 148.953  0.00  0.00     0.169 C 
ATOM     10  C           0     138.728 130.214 147.898  0.00  0.00     0.672 C 
ATOM     11  N           0     140.009 130.239 148.140  0.00  0.00    -0.235 N 
ATOM     12  H           0     140.452 129.448 148.485  0.00  0.00     0.174 HD
ATOM     13  H           0     140.518 131.047 147.975  0.00  0.00     0.174 HD
ATOM     14  C           0     136.686 130.800 147.002  0.00  0.00     0.217 C 
ATOM     15  N           0     138.015 131.281 147.410  0.00  0.00    -0.191 N 
ATOM     16  N           0     135.622 131.540 147.681  0.00  0.00    -0.183 N 
ATOM     17  C           0     135.462 132.808 146.953  0.00  0.00     0.150 C 
ATOM     18  C           0     135.971 132.562 145.517  0.00  0.00     0.093 C 
ATOM     19  C           0     136.458 131.087 145.504  0.00  0.00     0.209 C 
ATOM     20  H           0     134.969 129.502 150.046  0.00  0.00     0.178 HD
ATOM     21  H           0     138.334 132.194 147.342  0.00  0.00     0.180 HD
ENDROOT
BRANCH   6  22
ATOM     22  C           0     134.330 128.598 147.143  0.00  0.00     0.208 C 
BRANCH  22  23
ATOM     23  O           0     133.138 128.277 147.908  0.00  0.00    -0.302 OA
BRANCH  23  24
ATOM     24  C           0     132.267 127.360 147.444  0.00  0.00     0.358 C 
ATOM     25  N           0     132.713 126.157 147.031  0.00  0.00    -0.346 N 
ATOM     26  H           0     133.661 125.952 147.067  0.00  0.00     0.161 HD
ATOM     27  H           0     132.087 125.496 146.697  0.00  0.00     0.161 HD
ATOM     28  O           0     131.081 127.616 147.399  0.00  0.00    -0.239 OA
ENDBRANCH  23  24
ENDBRANCH  22  23
ENDBRANCH   6  22
BRANCH  19  29
ATOM     29  O           0     137.673 130.960 144.764  0.00  0.00    -0.362 OA
ATOM     30  H           0     137.817 131.804 144.315  0.00  0.00     0.213 HD
ENDBRANCH  19  29
BRANCH  19  31
ATOM     31  O           0     135.449 130.225 144.976  0.00  0.00    -0.362 OA
ATOM     32  H           0     135.090 130.662 144.191  0.00  0.00     0.213 HD
ENDBRANCH  19  31
TORSDOF 5
ENDMDL
MODEL 5
REMARK VINA RESULT:      -6.5     12.081     13.948
REMARK  5 active torsions:
REMARK  status: ('A' for Active; 'I' for Inactive)
REMARK    1  A    between atoms: C_6  and  C_7 
REMARK    2  A    between atoms: C_7  and  O_8 
REMARK    3  A    between atoms: O_8  and  C_9 
REMARK       I    between atoms: C_9  and  N_10 
REMARK    4  A    between atoms: C_24  and  O_25 
REMARK    5  A    between atoms: C_24  and  O_26 
ROOT
ATOM      1  N           0     137.786 133.961 142.101  0.00  0.00    -0.235 N 
ATOM      2  H           0     138.253 134.803 141.986  0.00  0.00     0.174 HD
ATOM      3  H           0     137.603 133.399 141.332  0.00  0.00     0.174 HD
ATOM      4  C           0     137.410 133.581 143.291  0.00  0.00     0.672 C 
ATOM      5  N           0     137.653 134.345 144.417  0.00  0.00    -0.218 N 
ATOM      6  C           0     136.726 134.241 145.541  0.00  0.00     0.151 C 
ATOM      7  C           0     136.480 132.804 145.960  0.00  0.00     0.182 C 
ATOM      8  N           0     137.636 132.326 146.750  0.00  0.00    -0.211 N 
ATOM      9  C           0     138.381 133.096 147.747  0.00  0.00     0.169 C 
ATOM     10  C           0     137.882 131.027 146.377  0.00  0.00     0.672 C 
ATOM     11  N           0     138.570 130.178 147.090  0.00  0.00    -0.235 N 
ATOM     12  H           0     138.942 130.452 147.943  0.00  0.00     0.174 HD
ATOM     13  H           0     138.707 129.274 146.769  0.00  0.00     0.174 HD
ATOM     14  C           0     136.398 131.824 144.803  0.00  0.00     0.217 C 
ATOM     15  N           0     137.316 130.732 145.161  0.00  0.00    -0.191 N 
ATOM     16  N           0     136.741 132.400 143.503  0.00  0.00    -0.183 N 
ATOM     17  C           0     136.179 131.501 142.483  0.00  0.00     0.150 C 
ATOM     18  C           0     135.003 130.757 143.149  0.00  0.00     0.093 C 
ATOM     19  C           0     134.971 131.272 144.614  0.00  0.00     0.209 C 
ATOM     20  H           0     138.422 134.937 144.460  0.00  0.00     0.178 HD
ATOM     21  H           0     137.490 129.938 144.632  0.00  0.00     0.180 HD
ENDROOT
BRANCH   6  22
ATOM     22  C           0     135.391 134.872 145.140  0.00  0.00     0.208 C 
BRANCH  22  23
ATOM     23  O           0     135.556 135.603 143.896  0.00  0.00    -0.302 OA
BRANCH  23  24
ATOM     24  C           0     134.584 135.573 142.963  0.00  0.00     0.358 C 
ATOM     25  N           0     134.272 136.692 142.281  0.00  0.00    -0.346 N 
ATOM     26  H           0     134.745 137.519 142.461  0.00  0.00     0.161 HD
ATOM     27  H           0     133.573 136.670 141.608  0.00  0.00     0.161 HD
ATOM     28  O           0     133.992 134.537 142.737  0.00  0.00    -0.239 OA
ENDBRANCH  23  24
ENDBRANCH  22  23
ENDBRANCH   6  22
BRANCH  19  29
ATOM     29  O           0     134.707 130.202 145.523  0.00  0.00    -0.362 OA
ATOM     30  H           0     133.964 130.481 146.075  0.00  0.00     0.213 HD
ENDBRANCH  19  29
BRANCH  19  31
ATOM     31  O           0     134.006 132.315 144.763  0.00  0.00    -0.362 OA
ATOM     32  H           0     133.192 132.004 144.344  0.00  0.00     0.213 HD
ENDBRANCH  19  31
TORSDOF 5
ENDMDL
MODEL 6
REMARK VINA RESULT:      -6.5      4.255      6.825
REMARK  5 active torsions:
REMARK  status: ('A' for Active; 'I' for Inactive)
REMARK    1  A    between atoms: C_6  and  C_7 
REMARK    2  A    between atoms: C_7  and  O_8 
REMARK    3  A    between atoms: O_8  and  C_9 
REMARK       I    between atoms: C_9  and  N_10 
REMARK    4  A    between atoms: C_24  and  O_25 
REMARK    5  A    between atoms: C_24  and  O_26 
ROOT
ATOM      1  N           0     134.709 132.969 132.819  0.00  0.00    -0.235 N 
ATOM      2  H           0     134.733 132.285 132.132  0.00  0.00     0.174 HD
ATOM      3  H           0     135.531 133.251 133.251  0.00  0.00     0.174 HD
ATOM      4  C           0     133.574 133.514 133.158  0.00  0.00     0.672 C 
ATOM      5  N           0     132.379 133.149 132.567  0.00  0.00    -0.218 N 
ATOM      6  C           0     131.151 133.272 133.349  0.00  0.00     0.151 C 
ATOM      7  C           0     130.996 134.644 133.975  0.00  0.00     0.182 C 
ATOM      8  N           0     130.542 135.600 132.941  0.00  0.00    -0.211 N 
ATOM      9  C           0     129.560 135.334 131.888  0.00  0.00     0.169 C 
ATOM     10  C           0     131.210 136.783 133.149  0.00  0.00     0.672 C 
ATOM     11  N           0     130.820 137.936 132.680  0.00  0.00    -0.235 N 
ATOM     12  H           0     130.012 137.994 132.148  0.00  0.00     0.174 HD
ATOM     13  H           0     131.339 138.734 132.864  0.00  0.00     0.174 HD
ATOM     14  C           0     132.294 135.247 134.483  0.00  0.00     0.217 C 
ATOM     15  N           0     132.338 136.602 133.911  0.00  0.00    -0.191 N 
ATOM     16  N           0     133.490 134.482 134.129  0.00  0.00    -0.183 N 
ATOM     17  C           0     134.552 134.912 135.051  0.00  0.00     0.150 C 
ATOM     18  C           0     133.851 135.449 136.315  0.00  0.00     0.093 C 
ATOM     19  C           0     132.331 135.324 136.023  0.00  0.00     0.209 C 
ATOM     20  H           0     132.355 132.820 131.654  0.00  0.00     0.178 HD
ATOM     21  H           0     133.040 137.255 134.050  0.00  0.00     0.180 HD
ENDROOT
BRANCH   6  22
ATOM     22  C           0     131.168 132.222 134.462  0.00  0.00     0.208 C 
BRANCH  22  23
ATOM     23  O           0     131.181 130.895 133.874  0.00  0.00    -0.302 OA
BRANCH  23  24
ATOM     24  C           0     132.280 130.123 133.978  0.00  0.00     0.358 C 
ATOM     25  N           0     132.278 128.876 133.466  0.00  0.00    -0.346 N 
ATOM     26  H           0     131.486 128.534 133.024  0.00  0.00     0.161 HD
ATOM     27  H           0     133.070 128.321 133.541  0.00  0.00     0.161 HD
ATOM     28  O           0     133.273 130.552 134.532  0.00  0.00    -0.239 OA
ENDBRANCH  23  24
ENDBRANCH  22  23
ENDBRANCH   6  22
BRANCH  19  29
ATOM     29  O           0     131.626 136.472 136.498  0.00  0.00    -0.362 OA
ATOM     30  H           0     132.199 137.235 136.346  0.00  0.00     0.213 HD
ENDBRANCH  19  29
BRANCH  19  31
ATOM     31  O           0     131.801 134.128 136.598  0.00  0.00    -0.362 OA
ATOM     32  H           0     130.943 133.973 136.178  0.00  0.00     0.213 HD
ENDBRANCH  19  31
TORSDOF 5
ENDMDL
MODEL 7
REMARK VINA RESULT:      -6.5     13.184     15.026
REMARK  5 active torsions:
REMARK  status: ('A' for Active; 'I' for Inactive)
REMARK    1  A    between atoms: C_6  and  C_7 
REMARK    2  A    between atoms: C_7  and  O_8 
REMARK    3  A    between atoms: O_8  and  C_9 
REMARK       I    between atoms: C_9  and  N_10 
REMARK    4  A    between atoms: C_24  and  O_25 
REMARK    5  A    between atoms: C_24  and  O_26 
ROOT
ATOM      1  N           0     135.383 130.793 143.248  0.00  0.00    -0.235 N 
ATOM      2  H           0     135.452 131.094 142.329  0.00  0.00     0.174 HD
ATOM      3  H           0     134.705 130.146 143.497  0.00  0.00     0.174 HD
ATOM      4  C           0     136.208 131.251 144.148  0.00  0.00     0.672 C 
ATOM      5  N           0     137.195 132.169 143.841  0.00  0.00    -0.218 N 
ATOM      6  C           0     137.634 133.092 144.884  0.00  0.00     0.151 C 
ATOM      7  C           0     138.003 132.381 146.172  0.00  0.00     0.182 C 
ATOM      8  N           0     139.341 131.768 146.021  0.00  0.00    -0.211 N 
ATOM      9  C           0     140.494 132.364 145.343  0.00  0.00     0.169 C 
ATOM     10  C           0     139.305 130.539 146.633  0.00  0.00     0.672 C 
ATOM     11  N           0     140.364 129.879 147.013  0.00  0.00    -0.235 N 
ATOM     12  H           0     141.247 130.254 146.868  0.00  0.00     0.174 HD
ATOM     13  H           0     140.269 129.014 147.440  0.00  0.00     0.174 HD
ATOM     14  C           0     137.102 131.207 146.514  0.00  0.00     0.217 C 
ATOM     15  N           0     138.018 130.091 146.795  0.00  0.00    -0.191 N 
ATOM     16  N           0     136.146 130.859 145.463  0.00  0.00    -0.183 N 
ATOM     17  C           0     135.089 130.062 146.105  0.00  0.00     0.150 C 
ATOM     18  C           0     135.081 130.456 147.597  0.00  0.00     0.093 C 
ATOM     19  C           0     136.226 131.494 147.750  0.00  0.00     0.209 C 
ATOM     20  H           0     137.587 132.199 142.953  0.00  0.00     0.178 HD
ATOM     21  H           0     137.757 129.194 147.054  0.00  0.00     0.180 HD
ENDROOT
BRANCH   6  22
ATOM     22  C           0     136.506 134.083 145.175  0.00  0.00     0.208 C 
BRANCH  22  23
ATOM     23  O           0     136.370 135.002 144.059  0.00  0.00    -0.302 OA
BRANCH  23  24
ATOM     24  C           0     135.221 135.044 143.357  0.00  0.00     0.358 C 
ATOM     25  N           0     134.734 136.226 142.932  0.00  0.00    -0.346 N 
ATOM     26  H           0     135.210 137.047 143.131  0.00  0.00     0.161 HD
ATOM     27  H           0     133.907 136.256 142.426  0.00  0.00     0.161 HD
ATOM     28  O           0     134.624 134.015 143.107  0.00  0.00    -0.239 OA
ENDBRANCH  23  24
ENDBRANCH  22  23
ENDBRANCH   6  22
BRANCH  19  29
ATOM     29  O           0     136.953 131.274 148.960  0.00  0.00    -0.362 OA
ATOM     30  H           0     137.462 132.078 149.131  0.00  0.00     0.213 HD
ENDBRANCH  19  29
BRANCH  19  31
ATOM     31  O           0     135.712 132.827 147.702  0.00  0.00    -0.362 OA
ATOM     32  H           0     136.187 133.284 146.994  0.00  0.00     0.213 HD
ENDBRANCH  19  31
TORSDOF 5
ENDMDL
MODEL 8
REMARK VINA RESULT:      -6.4      3.616      5.524
REMARK  5 active torsions:
REMARK  status: ('A' for Active; 'I' for Inactive)
REMARK    1  A    between atoms: C_6  and  C_7 
REMARK    2  A    between atoms: C_7  and  O_8 
REMARK    3  A    between atoms: O_8  and  C_9 
REMARK       I    between atoms: C_9  and  N_10 
REMARK    4  A    between atoms: C_24  and  O_25 
REMARK    5  A    between atoms: C_24  and  O_26 
ROOT
ATOM      1  N           0     129.555 131.540 131.701  0.00  0.00    -0.235 N 
ATOM      2  H           0     128.675 131.946 131.654  0.00  0.00     0.174 HD
ATOM      3  H           0     129.758 130.759 131.163  0.00  0.00     0.174 HD
ATOM      4  C           0     130.467 132.048 132.482  0.00  0.00     0.672 C 
ATOM      5  N           0     130.227 133.164 133.263  0.00  0.00    -0.218 N 
ATOM      6  C           0     130.966 133.307 134.515  0.00  0.00     0.151 C 
ATOM      7  C           0     132.462 133.146 134.328  0.00  0.00     0.182 C 
ATOM      8  N           0     133.016 134.391 133.751  0.00  0.00    -0.211 N 
ATOM      9  C           0     132.624 135.757 134.105  0.00  0.00     0.169 C 
ATOM     10  C           0     133.963 134.032 132.824  0.00  0.00     0.672 C 
ATOM     11  N           0     134.896 134.830 132.383  0.00  0.00    -0.235 N 
ATOM     12  H           0     134.950 135.740 132.713  0.00  0.00     0.174 HD
ATOM     13  H           0     135.536 134.513 131.727  0.00  0.00     0.174 HD
ATOM     14  C           0     132.852 132.074 133.324  0.00  0.00     0.217 C 
ATOM     15  N           0     133.808 132.729 132.417  0.00  0.00    -0.191 N 
ATOM     16  N           0     131.725 131.506 132.586  0.00  0.00    -0.183 N 
ATOM     17  C           0     132.188 130.222 132.036  0.00  0.00     0.150 C 
ATOM     18  C           0     133.343 129.744 132.940  0.00  0.00     0.093 C 
ATOM     19  C           0     133.518 130.861 134.005  0.00  0.00     0.209 C 
ATOM     20  H           0     129.583 133.835 132.987  0.00  0.00     0.178 HD
ATOM     21  H           0     134.254 132.312 131.664  0.00  0.00     0.180 HD
ENDROOT
BRANCH   6  22
ATOM     22  C           0     130.476 132.246 135.502  0.00  0.00     0.208 C 
BRANCH  22  23
ATOM     23  O           0     131.169 132.407 136.768  0.00  0.00    -0.302 OA
BRANCH  23  24
ATOM     24  C           0     130.543 132.105 137.922  0.00  0.00     0.358 C 
ATOM     25  N           0     130.918 132.707 139.068  0.00  0.00    -0.346 N 
ATOM     26  H           0     131.639 133.356 139.063  0.00  0.00     0.161 HD
ATOM     27  H           0     130.466 132.490 139.899  0.00  0.00     0.161 HD
ATOM     28  O           0     129.640 131.293 137.928  0.00  0.00    -0.239 OA
ENDBRANCH  23  24
ENDBRANCH  22  23
ENDBRANCH   6  22
BRANCH  19  29
ATOM     29  O           0     134.901 131.108 134.260  0.00  0.00    -0.362 OA
ATOM     30  H           0     135.284 130.272 134.558  0.00  0.00     0.213 HD
ENDBRANCH  19  29
BRANCH  19  31
ATOM     31  O           0     132.830 130.523 135.211  0.00  0.00    -0.362 OA
ATOM     32  H           0     131.923 130.844 135.114  0.00  0.00     0.213 HD
ENDBRANCH  19  31
TORSDOF 5
ENDMDL
MODEL 9
REMARK VINA RESULT:      -6.4     13.558     15.422
REMARK  5 active torsions:
REMARK  status: ('A' for Active; 'I' for Inactive)
REMARK    1  A    between atoms: C_6  and  C_7 
REMARK    2  A    between atoms: C_7  and  O_8 
REMARK    3  A    between atoms: O_8  and  C_9 
REMARK       I    between atoms: C_9  and  N_10 
REMARK    4  A    between atoms: C_24  and  O_25 
REMARK    5  A    between atoms: C_24  and  O_26 
ROOT
ATOM      1  N           0     136.304 134.825 147.960  0.00  0.00    -0.235 N 
ATOM      2  H           0     136.001 135.624 147.502  0.00  0.00     0.174 HD
ATOM      3  H           0     136.502 134.855 148.909  0.00  0.00     0.174 HD
ATOM      4  C           0     136.441 133.708 147.301  0.00  0.00     0.672 C 
ATOM      5  N           0     136.166 133.613 145.949  0.00  0.00    -0.218 N 
ATOM      6  C           0     136.895 132.625 145.160  0.00  0.00     0.151 C 
ATOM      7  C           0     136.844 131.238 145.773  0.00  0.00     0.182 C 
ATOM      8  N           0     135.525 130.631 145.488  0.00  0.00    -0.211 N 
ATOM      9  C           0     134.780 130.731 144.232  0.00  0.00     0.169 C 
ATOM     10  C           0     135.128 129.955 146.616  0.00  0.00     0.672 C 
ATOM     11  N           0     134.219 129.020 146.628  0.00  0.00    -0.235 N 
ATOM     12  H           0     133.777 128.764 145.803  0.00  0.00     0.174 HD
ATOM     13  H           0     133.984 128.582 147.460  0.00  0.00     0.174 HD
ATOM     14  C           0     136.930 131.226 147.290  0.00  0.00     0.217 C 
ATOM     15  N           0     135.806 130.385 147.730  0.00  0.00    -0.191 N 
ATOM     16  N           0     136.873 132.552 147.905  0.00  0.00    -0.183 N 
ATOM     17  C           0     137.422 132.409 149.262  0.00  0.00     0.150 C 
ATOM     18  C           0     138.355 131.181 149.236  0.00  0.00     0.093 C 
ATOM     19  C           0     138.262 130.628 147.787  0.00  0.00     0.209 C 
ATOM     20  H           0     135.505 134.191 145.535  0.00  0.00     0.178 HD
ATOM     21  H           0     135.584 130.168 148.649  0.00  0.00     0.180 HD
ENDROOT
BRANCH   6  22
ATOM     22  C           0     138.358 133.060 145.050  0.00  0.00     0.208 C 
BRANCH  22  23
ATOM     23  O           0     138.735 133.140 143.650  0.00  0.00    -0.302 OA
BRANCH  23  24
ATOM     24  C           0     138.231 134.117 142.872  0.00  0.00     0.358 C 
ATOM     25  N           0     137.204 133.854 142.041  0.00  0.00    -0.346 N 
ATOM     26  H           0     136.827 132.960 142.002  0.00  0.00     0.161 HD
ATOM     27  H           0     136.840 134.558 141.481  0.00  0.00     0.161 HD
ATOM     28  O           0     138.701 135.236 142.922  0.00  0.00    -0.239 OA
ENDBRANCH  23  24
ENDBRANCH  22  23
ENDBRANCH   6  22
BRANCH  19  29
ATOM     29  O           0     138.217 129.201 147.790  0.00  0.00    -0.362 OA
ATOM     30  H           0     137.428 128.946 148.287  0.00  0.00     0.213 HD
ENDBRANCH  19  29
BRANCH  19  31
ATOM     31  O           0     139.351 131.101 146.993  0.00  0.00    -0.362 OA
ATOM     32  H           0     139.137 130.892 146.073  0.00  0.00     0.213 HD
ENDBRANCH  19  31
TORSDOF 5
ENDMDL
