# created with PyMOL 2.3.4
@<TRIPOS>MOLECULE
ligand_out_0001
30 32 1                 
SMALL
USER_CHARGES
@<TRIPOS>ATOM
1	   N	134.899	131.963	146.611	N.3	1	UNK0	-0.235	
2	   N	136.412	133.677	146.054	N.3	1	UNK0	-0.218	
3	   N	136.210	135.801	143.832	N.3	1	UNK0	-0.216	
4	   N	134.424	136.904	142.740	N.3	1	UNK0	-0.235	
5	   N	134.508	134.553	142.990	N.3	1	UNK0	-0.191	
6	   N	135.115	132.678	144.393	N.3	1	UNK0	-0.183	
7	   C	135.449	132.740	145.721	C.3	1	UNK0	0.672	
8	   C	137.398	134.045	145.043	C.3	1	UNK0	0.151	
9	   C	136.763	134.434	143.722	C.3	1	UNK0	0.180	
10	   C	135.012	135.819	143.162	C.3	1	UNK0	0.670	
11	   C	135.562	133.585	143.335	C.3	1	UNK0	0.217	
12	   C	134.288	131.665	143.714	C.3	1	UNK0	0.150	
13	   C	135.019	131.409	142.374	C.3	1	UNK0	0.093	
14	   C	135.861	132.685	142.124	C.3	1	UNK0	0.209	
15	   C	138.333	132.857	144.809	C.2	1	UNK0	0.206	
16	   C	138.922	131.224	146.495	C.2	1	UNK0	0.254	
17	   C	140.192	130.496	146.852	C.3	1	UNK0	0.126	
18	   O	138.974	132.492	146.059	O.2	1	UNK0	-0.320	
19	   O	137.856	130.664	146.600	O.co2	1	UNK0	-0.266	
20	   O	135.455	133.321	140.912	O.2	1	UNK0	-0.362	
21	   O	137.253	132.362	142.077	O.2	1	UNK0	-0.362	
22	   H	135.162	132.031	147.542	 H	1	UNK0	0.174	
23	   H	134.224	131.320	146.344	 H	1	UNK0	0.174	
24	   H	134.835	137.769	142.894	 H	1	UNK0	0.174	
25	   H	133.578	136.846	142.272	 H	1	UNK0	0.174	
26	   H	136.430	134.079	146.938	 H	1	UNK0	0.178	
27	   H	136.620	136.550	144.294	 H	1	UNK0	0.178	
28	   H	133.612	134.335	142.691	 H	1	UNK0	0.180	
29	   H	134.843	134.027	141.158	 H	1	UNK0	0.213	
30	   H	137.482	132.251	141.145	 H	1	UNK0	0.213	
@<TRIPOS>BOND
1 1 7 1
2 1 22 1
3 1 23 1
4 2 8 1
5 2 26 1
6 3 10 1
7 3 27 1
8 4 24 1
9 4 25 1
10 5 28 1
11 6 12 1
12 2 7 1
13 6 7 1
14 8 9 1
15 8 15 1
16 3 9 1
17 9 11 1
18 4 10 1
19 5 10 1
20 5 11 1
21 6 11 1
22 11 14 1
23 12 13 1
24 13 14 1
25 14 20 2
26 14 21 2
27 15 18 2
28 16 17 1
29 16 19 2
30 16 18 2
31 20 29 1
32 21 30 1
@<TRIPOS>SUBSTRUCTURE
1	UNK0	1	GROUP	1 ****	UNK
