MODEL 1
REMARK VINA RESULT:      -7.2      0.000      0.000
REMARK  5 active torsions:
REMARK  status: ('A' for Active; 'I' for Inactive)
REMARK    1  A    between atoms: C_6  and  C_7 
REMARK    2  A    between atoms: C_7  and  O_8 
REMARK    3  A    between atoms: O_8  and  C_9 
REMARK    4  A    between atoms: C_23  and  O_24 
REMARK    5  A    between atoms: C_23  and  O_25 
ROOT
ATOM      1  N           0     134.899 131.963 146.611  0.00  0.00    -0.235 N 
ATOM      2  H           0     135.162 132.031 147.542  0.00  0.00     0.174 HD
ATOM      3  H           0     134.224 131.320 146.344  0.00  0.00     0.174 HD
ATOM      4  C           0     135.449 132.740 145.721  0.00  0.00     0.672 C 
ATOM      5  N           0     136.412 133.677 146.054  0.00  0.00    -0.218 N 
ATOM      6  C           0     137.398 134.045 145.043  0.00  0.00     0.151 C 
ATOM      7  C           0     136.763 134.434 143.722  0.00  0.00     0.180 C 
ATOM      8  N           0     136.210 135.801 143.832  0.00  0.00    -0.216 N 
ATOM      9  C           0     135.012 135.819 143.162  0.00  0.00     0.670 C 
ATOM     10  N           0     134.424 136.904 142.740  0.00  0.00    -0.235 N 
ATOM     11  H           0     134.835 137.769 142.894  0.00  0.00     0.174 HD
ATOM     12  H           0     133.578 136.846 142.272  0.00  0.00     0.174 HD
ATOM     13  C           0     135.562 133.585 143.335  0.00  0.00     0.217 C 
ATOM     14  N           0     134.508 134.553 142.990  0.00  0.00    -0.191 N 
ATOM     15  N           0     135.115 132.678 144.393  0.00  0.00    -0.183 N 
ATOM     16  C           0     134.288 131.665 143.714  0.00  0.00     0.150 C 
ATOM     17  C           0     135.019 131.409 142.374  0.00  0.00     0.093 C 
ATOM     18  C           0     135.861 132.685 142.124  0.00  0.00     0.209 C 
ATOM     19  H           0     136.430 134.079 146.938  0.00  0.00     0.178 HD
ATOM     20  H           0     136.620 136.550 144.294  0.00  0.00     0.178 HD
ATOM     21  H           0     133.612 134.335 142.691  0.00  0.00     0.180 HD
ENDROOT
BRANCH   6  22
ATOM     22  C           0     138.333 132.857 144.809  0.00  0.00     0.206 C 
BRANCH  22  23
ATOM     23  O           0     138.974 132.492 146.059  0.00  0.00    -0.320 OA
BRANCH  23  24
ATOM     24  C           0     138.922 131.224 146.495  0.00  0.00     0.254 C 
ATOM     25  C           0     140.192 130.496 146.852  0.00  0.00     0.126 C 
ATOM     26  O           0     137.856 130.664 146.600  0.00  0.00    -0.266 OA
ENDBRANCH  23  24
ENDBRANCH  22  23
ENDBRANCH   6  22
BRANCH  18  27
ATOM     27  O           0     135.455 133.321 140.912  0.00  0.00    -0.362 OA
ATOM     28  H           0     134.843 134.027 141.158  0.00  0.00     0.213 HD
ENDBRANCH  18  27
BRANCH  18  29
ATOM     29  O           0     137.253 132.362 142.077  0.00  0.00    -0.362 OA
ATOM     30  H           0     137.482 132.251 141.145  0.00  0.00     0.213 HD
ENDBRANCH  18  29
TORSDOF 5
ENDMDL
MODEL 2
REMARK VINA RESULT:      -6.6      2.491      4.902
REMARK  5 active torsions:
REMARK  status: ('A' for Active; 'I' for Inactive)
REMARK    1  A    between atoms: C_6  and  C_7 
REMARK    2  A    between atoms: C_7  and  O_8 
REMARK    3  A    between atoms: O_8  and  C_9 
REMARK    4  A    between atoms: C_23  and  O_24 
REMARK    5  A    between atoms: C_23  and  O_25 
ROOT
ATOM      1  N           0     139.650 130.540 146.006  0.00  0.00    -0.235 N 
ATOM      2  H           0     140.404 130.684 145.413  0.00  0.00     0.174 HD
ATOM      3  H           0     139.682 129.833 146.668  0.00  0.00     0.174 HD
ATOM      4  C           0     138.596 131.302 145.916  0.00  0.00     0.672 C 
ATOM      5  N           0     138.505 132.328 144.992  0.00  0.00    -0.218 N 
ATOM      6  C           0     137.181 132.709 144.509  0.00  0.00     0.151 C 
ATOM      7  C           0     136.200 132.969 145.637  0.00  0.00     0.180 C 
ATOM      8  N           0     136.481 134.293 146.230  0.00  0.00    -0.216 N 
ATOM      9  C           0     136.329 134.179 147.590  0.00  0.00     0.670 C 
ATOM     10  N           0     136.141 135.189 148.394  0.00  0.00    -0.235 N 
ATOM     11  H           0     136.101 136.091 148.038  0.00  0.00     0.174 HD
ATOM     12  H           0     136.040 135.038 149.346  0.00  0.00     0.174 HD
ATOM     13  C           0     136.333 132.009 146.809  0.00  0.00     0.217 C 
ATOM     14  N           0     136.400 132.871 148.000  0.00  0.00    -0.191 N 
ATOM     15  N           0     137.504 131.135 146.728  0.00  0.00    -0.183 N 
ATOM     16  C           0     137.226 130.023 147.653  0.00  0.00     0.150 C 
ATOM     17  C           0     135.715 129.743 147.473  0.00  0.00     0.093 C 
ATOM     18  C           0     135.124 131.062 146.915  0.00  0.00     0.209 C 
ATOM     19  H           0     139.302 132.783 144.673  0.00  0.00     0.178 HD
ATOM     20  H           0     136.729 135.098 145.746  0.00  0.00     0.178 HD
ATOM     21  H           0     136.477 132.567 148.918  0.00  0.00     0.180 HD
ENDROOT
BRANCH   6  22
ATOM     22  C           0     136.633 131.584 143.630  0.00  0.00     0.206 C 
BRANCH  22  23
ATOM     23  O           0     135.920 132.155 142.502  0.00  0.00    -0.320 OA
BRANCH  23  24
ATOM     24  C           0     134.579 132.127 142.470  0.00  0.00     0.254 C 
ATOM     25  C           0     133.801 133.406 142.297  0.00  0.00     0.126 C 
ATOM     26  O           0     133.995 131.075 142.583  0.00  0.00    -0.266 OA
ENDBRANCH  23  24
ENDBRANCH  22  23
ENDBRANCH   6  22
BRANCH  18  27
ATOM     27  O           0     134.149 131.591 147.814  0.00  0.00    -0.362 OA
ATOM     28  H           0     134.623 131.871 148.609  0.00  0.00     0.213 HD
ENDBRANCH  18  27
BRANCH  18  29
ATOM     29  O           0     134.549 130.845 145.625  0.00  0.00    -0.362 OA
ATOM     30  H           0     135.251 130.998 144.978  0.00  0.00     0.213 HD
ENDBRANCH  18  29
TORSDOF 5
ENDMDL
MODEL 3
REMARK VINA RESULT:      -6.6      1.720      2.221
REMARK  5 active torsions:
REMARK  status: ('A' for Active; 'I' for Inactive)
REMARK    1  A    between atoms: C_6  and  C_7 
REMARK    2  A    between atoms: C_7  and  O_8 
REMARK    3  A    between atoms: O_8  and  C_9 
REMARK    4  A    between atoms: C_23  and  O_24 
REMARK    5  A    between atoms: C_23  and  O_25 
ROOT
ATOM      1  N           0     136.011 134.639 146.683  0.00  0.00    -0.235 N 
ATOM      2  H           0     136.449 135.471 146.924  0.00  0.00     0.174 HD
ATOM      3  H           0     135.568 134.110 147.365  0.00  0.00     0.174 HD
ATOM      4  C           0     136.011 134.237 145.444  0.00  0.00     0.672 C 
ATOM      5  N           0     136.624 134.961 144.435  0.00  0.00    -0.218 N 
ATOM      6  C           0     137.135 134.235 143.276  0.00  0.00     0.151 C 
ATOM      7  C           0     136.103 133.306 142.665  0.00  0.00     0.180 C 
ATOM      8  N           0     135.141 134.103 141.874  0.00  0.00    -0.216 N 
ATOM      9  C           0     133.892 133.572 142.085  0.00  0.00     0.670 C 
ATOM     10  N           0     132.870 133.768 141.298  0.00  0.00    -0.235 N 
ATOM     11  H           0     132.968 134.319 140.505  0.00  0.00     0.174 HD
ATOM     12  H           0     132.015 133.363 141.504  0.00  0.00     0.174 HD
ATOM     13  C           0     135.231 132.589 143.684  0.00  0.00     0.217 C 
ATOM     14  N           0     133.850 132.810 143.225  0.00  0.00    -0.191 N 
ATOM     15  N           0     135.410 133.068 145.056  0.00  0.00    -0.183 N 
ATOM     16  C           0     134.864 132.003 145.915  0.00  0.00     0.150 C 
ATOM     17  C           0     135.290 130.690 145.216  0.00  0.00     0.093 C 
ATOM     18  C           0     135.531 131.081 143.736  0.00  0.00     0.209 C 
ATOM     19  H           0     136.710 135.925 144.496  0.00  0.00     0.178 HD
ATOM     20  H           0     135.353 134.862 141.309  0.00  0.00     0.178 HD
ATOM     21  H           0     133.049 132.472 143.654  0.00  0.00     0.180 HD
ENDROOT
BRANCH   6  22
ATOM     22  C           0     138.347 133.407 143.707  0.00  0.00     0.206 C 
BRANCH  22  23
ATOM     23  O           0     138.270 133.141 145.132  0.00  0.00    -0.320 OA
BRANCH  23  24
ATOM     24  C           0     139.005 132.156 145.672  0.00  0.00     0.254 C 
ATOM     25  C           0     140.408 132.435 146.145  0.00  0.00     0.126 C 
ATOM     26  O           0     138.541 131.045 145.778  0.00  0.00    -0.266 OA
ENDBRANCH  23  24
ENDBRANCH  22  23
ENDBRANCH   6  22
BRANCH  18  27
ATOM     27  O           0     134.642 130.362 142.879  0.00  0.00    -0.362 OA
ATOM     28  H           0     134.813 129.422 143.024  0.00  0.00     0.213 HD
ENDBRANCH  18  27
BRANCH  18  29
ATOM     29  O           0     136.889 130.832 143.370  0.00  0.00    -0.362 OA
ATOM     30  H           0     137.054 129.892 143.530  0.00  0.00     0.213 HD
ENDBRANCH  18  29
TORSDOF 5
ENDMDL
MODEL 4
REMARK VINA RESULT:      -6.2      2.842      3.845
REMARK  5 active torsions:
REMARK  status: ('A' for Active; 'I' for Inactive)
REMARK    1  A    between atoms: C_6  and  C_7 
REMARK    2  A    between atoms: C_7  and  O_8 
REMARK    3  A    between atoms: O_8  and  C_9 
REMARK    4  A    between atoms: C_23  and  O_24 
REMARK    5  A    between atoms: C_23  and  O_25 
ROOT
ATOM      1  N           0     136.229 134.566 147.562  0.00  0.00    -0.235 N 
ATOM      2  H           0     136.738 135.389 147.490  0.00  0.00     0.174 HD
ATOM      3  H           0     135.594 134.451 148.286  0.00  0.00     0.174 HD
ATOM      4  C           0     136.392 133.619 146.682  0.00  0.00     0.672 C 
ATOM      5  N           0     137.280 133.739 145.627  0.00  0.00    -0.218 N 
ATOM      6  C           0     137.875 132.522 145.083  0.00  0.00     0.151 C 
ATOM      7  C           0     136.841 131.467 144.742  0.00  0.00     0.180 C 
ATOM      8  N           0     136.171 131.832 143.476  0.00  0.00    -0.216 N 
ATOM      9  C           0     134.838 131.530 143.609  0.00  0.00     0.670 C 
ATOM     10  N           0     134.019 131.375 142.607  0.00  0.00    -0.235 N 
ATOM     11  H           0     134.341 131.473 141.697  0.00  0.00     0.174 HD
ATOM     12  H           0     133.088 131.161 142.771  0.00  0.00     0.174 HD
ATOM     13  C           0     135.699 131.370 145.743  0.00  0.00     0.217 C 
ATOM     14  N           0     134.475 131.411 144.927  0.00  0.00    -0.191 N 
ATOM     15  N           0     135.699 132.439 146.743  0.00  0.00    -0.183 N 
ATOM     16  C           0     134.849 131.944 147.841  0.00  0.00     0.150 C 
ATOM     17  C           0     135.187 130.438 147.940  0.00  0.00     0.093 C 
ATOM     18  C           0     135.749 130.059 146.546  0.00  0.00     0.209 C 
ATOM     19  H           0     137.501 134.610 145.259  0.00  0.00     0.178 HD
ATOM     20  H           0     136.597 132.216 142.693  0.00  0.00     0.178 HD
ATOM     21  H           0     133.567 131.360 145.264  0.00  0.00     0.180 HD
ENDROOT
BRANCH   6  22
ATOM     22  C           0     138.848 131.945 146.112  0.00  0.00     0.206 C 
BRANCH  22  23
ATOM     23  O           0     139.730 132.995 146.588  0.00  0.00    -0.320 OA
BRANCH  23  24
ATOM     24  C           0     140.062 133.056 147.887  0.00  0.00     0.254 C 
ATOM     25  C           0     139.140 132.477 148.929  0.00  0.00     0.126 C 
ATOM     26  O           0     141.100 133.576 148.221  0.00  0.00    -0.266 OA
ENDBRANCH  23  24
ENDBRANCH  22  23
ENDBRANCH   6  22
BRANCH  18  27
ATOM     27  O           0     134.931 129.062 145.933  0.00  0.00    -0.362 OA
ATOM     28  H           0     134.194 128.895 146.536  0.00  0.00     0.213 HD
ENDBRANCH  18  27
BRANCH  18  29
ATOM     29  O           0     137.097 129.598 146.661  0.00  0.00    -0.362 OA
ATOM     30  H           0     137.499 129.693 145.787  0.00  0.00     0.213 HD
ENDBRANCH  18  29
TORSDOF 5
ENDMDL
MODEL 5
REMARK VINA RESULT:      -6.2      4.026      6.165
REMARK  5 active torsions:
REMARK  status: ('A' for Active; 'I' for Inactive)
REMARK    1  A    between atoms: C_6  and  C_7 
REMARK    2  A    between atoms: C_7  and  O_8 
REMARK    3  A    between atoms: O_8  and  C_9 
REMARK    4  A    between atoms: C_23  and  O_24 
REMARK    5  A    between atoms: C_23  and  O_25 
ROOT
ATOM      1  N           0     134.337 131.951 149.450  0.00  0.00    -0.235 N 
ATOM      2  H           0     133.912 131.639 150.264  0.00  0.00     0.174 HD
ATOM      3  H           0     134.255 132.881 149.186  0.00  0.00     0.174 HD
ATOM      4  C           0     135.026 131.123 148.715  0.00  0.00     0.672 C 
ATOM      5  N           0     135.178 129.790 149.054  0.00  0.00    -0.218 N 
ATOM      6  C           0     135.380 128.823 147.979  0.00  0.00     0.151 C 
ATOM      7  C           0     136.494 129.224 147.032  0.00  0.00     0.180 C 
ATOM      8  N           0     137.799 128.947 147.670  0.00  0.00    -0.216 N 
ATOM      9  C           0     138.642 129.985 147.358  0.00  0.00     0.670 C 
ATOM     10  N           0     139.943 129.919 147.431  0.00  0.00    -0.235 N 
ATOM     11  H           0     140.371 129.098 147.722  0.00  0.00     0.174 HD
ATOM     12  H           0     140.481 130.690 147.195  0.00  0.00     0.174 HD
ATOM     13  C           0     136.546 130.714 146.730  0.00  0.00     0.217 C 
ATOM     14  N           0     137.948 131.100 146.958  0.00  0.00    -0.191 N 
ATOM     15  N           0     135.642 131.516 147.556  0.00  0.00    -0.183 N 
ATOM     16  C           0     135.495 132.797 146.842  0.00  0.00     0.150 C 
ATOM     17  C           0     135.450 132.400 145.347  0.00  0.00     0.093 C 
ATOM     18  C           0     136.150 131.020 145.275  0.00  0.00     0.209 C 
ATOM     19  H           0     135.153 129.506 149.982  0.00  0.00     0.178 HD
ATOM     20  H           0     138.019 128.172 148.211  0.00  0.00     0.178 HD
ATOM     21  H           0     138.319 131.988 146.843  0.00  0.00     0.180 HD
ENDROOT
BRANCH   6  22
ATOM     22  C           0     134.081 128.690 147.183  0.00  0.00     0.206 C 
BRANCH  22  23
ATOM     23  O           0     133.254 127.654 147.774  0.00  0.00    -0.320 OA
BRANCH  23  24
ATOM     24  C           0     132.001 127.935 148.163  0.00  0.00     0.254 C 
ATOM     25  C           0     131.761 128.711 149.432  0.00  0.00     0.126 C 
ATOM     26  O           0     131.064 127.565 147.496  0.00  0.00    -0.266 OA
ENDBRANCH  23  24
ENDBRANCH  22  23
ENDBRANCH   6  22
BRANCH  18  27
ATOM     27  O           0     137.308 131.090 144.443  0.00  0.00    -0.362 OA
ATOM     28  H           0     137.194 131.860 143.869  0.00  0.00     0.213 HD
ENDBRANCH  18  27
BRANCH  18  29
ATOM     29  O           0     135.244 130.027 144.789  0.00  0.00    -0.362 OA
ATOM     30  H           0     135.419 129.220 145.292  0.00  0.00     0.213 HD
ENDBRANCH  18  29
TORSDOF 5
ENDMDL
MODEL 6
REMARK VINA RESULT:      -6.2      2.507      3.873
REMARK  5 active torsions:
REMARK  status: ('A' for Active; 'I' for Inactive)
REMARK    1  A    between atoms: C_6  and  C_7 
REMARK    2  A    between atoms: C_7  and  O_8 
REMARK    3  A    between atoms: O_8  and  C_9 
REMARK    4  A    between atoms: C_23  and  O_24 
REMARK    5  A    between atoms: C_23  and  O_25 
ROOT
ATOM      1  N           0     138.828 130.806 145.492  0.00  0.00    -0.235 N 
ATOM      2  H           0     138.961 130.126 146.171  0.00  0.00     0.174 HD
ATOM      3  H           0     139.574 131.095 144.943  0.00  0.00     0.174 HD
ATOM      4  C           0     137.647 131.328 145.314  0.00  0.00     0.672 C 
ATOM      5  N           0     136.551 130.945 146.068  0.00  0.00    -0.218 N 
ATOM      6  C           0     135.485 131.919 146.283  0.00  0.00     0.151 C 
ATOM      7  C           0     135.003 132.552 144.992  0.00  0.00     0.180 C 
ATOM      8  N           0     134.130 131.596 144.278  0.00  0.00    -0.216 N 
ATOM      9  C           0     134.416 131.694 142.939  0.00  0.00     0.670 C 
ATOM     10  N           0     133.621 131.287 141.988  0.00  0.00    -0.235 N 
ATOM     11  H           0     132.766 130.886 142.210  0.00  0.00     0.174 HD
ATOM     12  H           0     133.884 131.387 141.061  0.00  0.00     0.174 HD
ATOM     13  C           0     136.111 132.849 143.994  0.00  0.00     0.217 C 
ATOM     14  N           0     135.642 132.273 142.723  0.00  0.00    -0.191 N 
ATOM     15  N           0     137.411 132.295 144.372  0.00  0.00    -0.183 N 
ATOM     16  C           0     138.400 133.039 143.571  0.00  0.00     0.150 C 
ATOM     17  C           0     137.863 134.490 143.549  0.00  0.00     0.093 C 
ATOM     18  C           0     136.344 134.361 143.828  0.00  0.00     0.209 C 
ATOM     19  H           0     136.493 130.051 146.443  0.00  0.00     0.178 HD
ATOM     20  H           0     133.473 131.007 144.683  0.00  0.00     0.178 HD
ATOM     21  H           0     136.116 132.300 141.878  0.00  0.00     0.180 HD
ENDROOT
BRANCH   6  22
ATOM     22  C           0     136.003 133.021 147.209  0.00  0.00     0.206 C 
BRANCH  22  23
ATOM     23  O           0     135.285 132.971 148.470  0.00  0.00    -0.320 OA
BRANCH  23  24
ATOM     24  C           0     135.165 131.808 149.128  0.00  0.00     0.254 C 
ATOM     25  C           0     133.805 131.322 149.560  0.00  0.00     0.126 C 
ATOM     26  O           0     136.148 131.150 149.377  0.00  0.00    -0.266 OA
ENDBRANCH  23  24
ENDBRANCH  22  23
ENDBRANCH   6  22
BRANCH  18  27
ATOM     27  O           0     135.591 134.868 142.725  0.00  0.00    -0.362 OA
ATOM     28  H           0     135.586 135.831 142.808  0.00  0.00     0.213 HD
ENDBRANCH  18  27
BRANCH  18  29
ATOM     29  O           0     135.997 135.052 145.030  0.00  0.00    -0.362 OA
ATOM     30  H           0     136.084 135.997 144.843  0.00  0.00     0.213 HD
ENDBRANCH  18  29
TORSDOF 5
ENDMDL
MODEL 7
REMARK VINA RESULT:      -6.2      2.735      5.488
REMARK  5 active torsions:
REMARK  status: ('A' for Active; 'I' for Inactive)
REMARK    1  A    between atoms: C_6  and  C_7 
REMARK    2  A    between atoms: C_7  and  O_8 
REMARK    3  A    between atoms: O_8  and  C_9 
REMARK    4  A    between atoms: C_23  and  O_24 
REMARK    5  A    between atoms: C_23  and  O_25 
ROOT
ATOM      1  N           0     134.877 129.575 145.957  0.00  0.00    -0.235 N 
ATOM      2  H           0     134.508 129.077 145.211  0.00  0.00     0.174 HD
ATOM      3  H           0     134.665 129.313 146.866  0.00  0.00     0.174 HD
ATOM      4  C           0     135.664 130.591 145.737  0.00  0.00     0.672 C 
ATOM      5  N           0     136.001 130.998 144.458  0.00  0.00    -0.218 N 
ATOM      6  C           0     136.320 132.406 144.243  0.00  0.00     0.151 C 
ATOM      7  C           0     137.357 132.927 145.219  0.00  0.00     0.180 C 
ATOM      8  N           0     138.695 132.452 144.807  0.00  0.00    -0.216 N 
ATOM      9  C           0     139.385 132.115 145.946  0.00  0.00     0.670 C 
ATOM     10  N           0     140.683 132.006 146.010  0.00  0.00    -0.235 N 
ATOM     11  H           0     141.223 132.167 145.220  0.00  0.00     0.174 HD
ATOM     12  H           0     141.108 131.766 146.847  0.00  0.00     0.174 HD
ATOM     13  C           0     137.202 132.393 146.635  0.00  0.00     0.217 C 
ATOM     14  N           0     138.541 131.909 147.008  0.00  0.00    -0.191 N 
ATOM     15  N           0     136.206 131.327 146.758  0.00  0.00    -0.183 N 
ATOM     16  C           0     135.878 131.265 148.193  0.00  0.00     0.150 C 
ATOM     17  C           0     135.869 132.743 148.650  0.00  0.00     0.093 C 
ATOM     18  C           0     136.750 133.489 147.616  0.00  0.00     0.209 C 
ATOM     19  H           0     136.025 130.364 143.724  0.00  0.00     0.178 HD
ATOM     20  H           0     139.026 132.388 143.896  0.00  0.00     0.178 HD
ATOM     21  H           0     138.785 131.514 147.859  0.00  0.00     0.180 HD
ENDROOT
BRANCH   6  22
ATOM     22  C           0     135.042 133.232 144.397  0.00  0.00     0.206 C 
BRANCH  22  23
ATOM     23  O           0     134.427 133.421 143.096  0.00  0.00    -0.320 OA
BRANCH  23  24
ATOM     24  C           0     134.249 134.659 142.611  0.00  0.00     0.254 C 
ATOM     25  C           0     134.800 135.848 143.355  0.00  0.00     0.126 C 
ATOM     26  O           0     133.644 134.822 141.577  0.00  0.00    -0.266 OA
ENDBRANCH  23  24
ENDBRANCH  22  23
ENDBRANCH   6  22
BRANCH  18  27
ATOM     27  O           0     137.878 134.084 148.259  0.00  0.00    -0.362 OA
ATOM     28  H           0     137.752 133.966 149.210  0.00  0.00     0.213 HD
ENDBRANCH  18  27
BRANCH  18  29
ATOM     29  O           0     135.983 134.482 146.932  0.00  0.00    -0.362 OA
ATOM     30  H           0     136.613 135.115 146.562  0.00  0.00     0.213 HD
ENDBRANCH  18  29
TORSDOF 5
ENDMDL
MODEL 8
REMARK VINA RESULT:      -6.1      9.904     12.634
REMARK  5 active torsions:
REMARK  status: ('A' for Active; 'I' for Inactive)
REMARK    1  A    between atoms: C_6  and  C_7 
REMARK    2  A    between atoms: C_7  and  O_8 
REMARK    3  A    between atoms: O_8  and  C_9 
REMARK    4  A    between atoms: C_23  and  O_24 
REMARK    5  A    between atoms: C_23  and  O_25 
ROOT
ATOM      1  N           0     128.744 133.980 131.779  0.00  0.00    -0.235 N 
ATOM      2  H           0     127.958 133.618 131.341  0.00  0.00     0.174 HD
ATOM      3  H           0     128.997 134.905 131.634  0.00  0.00     0.174 HD
ATOM      4  C           0     129.456 133.226 132.568  0.00  0.00     0.672 C 
ATOM      5  N           0     129.132 131.903 132.813  0.00  0.00    -0.218 N 
ATOM      6  C           0     130.210 130.977 133.145  0.00  0.00     0.151 C 
ATOM      7  C           0     131.094 131.486 134.267  0.00  0.00     0.180 C 
ATOM      8  N           0     130.396 131.303 135.557  0.00  0.00    -0.216 N 
ATOM      9  C           0     130.649 132.411 136.328  0.00  0.00     0.670 C 
ATOM     10  N           0     130.511 132.450 137.624  0.00  0.00    -0.235 N 
ATOM     11  H           0     130.213 131.661 138.103  0.00  0.00     0.174 HD
ATOM     12  H           0     130.708 133.266 138.108  0.00  0.00     0.174 HD
ATOM     13  C           0     131.369 132.981 134.212  0.00  0.00     0.217 C 
ATOM     14  N           0     131.065 133.474 135.565  0.00  0.00    -0.191 N 
ATOM     15  N           0     130.577 133.691 133.206  0.00  0.00    -0.183 N 
ATOM     16  C           0     131.276 134.969 132.989  0.00  0.00     0.150 C 
ATOM     17  C           0     132.778 134.600 133.050  0.00  0.00     0.093 C 
ATOM     18  C           0     132.837 133.283 133.863  0.00  0.00     0.209 C 
ATOM     19  H           0     128.211 131.599 132.765  0.00  0.00     0.178 HD
ATOM     20  H           0     129.857 130.537 135.814  0.00  0.00     0.178 HD
ATOM     21  H           0     131.147 134.392 135.867  0.00  0.00     0.180 HD
ENDROOT
BRANCH   6  22
ATOM     22  C           0     131.072 130.756 131.901  0.00  0.00     0.206 C 
BRANCH  22  23
ATOM     23  O           0     132.074 129.743 132.180  0.00  0.00    -0.320 OA
BRANCH  23  24
ATOM     24  C           0     131.714 128.456 132.297  0.00  0.00     0.254 C 
ATOM     25  C           0     130.908 127.797 131.208  0.00  0.00     0.126 C 
ATOM     26  O           0     132.035 127.825 133.277  0.00  0.00    -0.266 OA
ENDBRANCH  23  24
ENDBRANCH  22  23
ENDBRANCH   6  22
BRANCH  18  27
ATOM     27  O           0     133.609 133.464 135.051  0.00  0.00    -0.362 OA
ATOM     28  H           0     133.270 134.257 135.486  0.00  0.00     0.213 HD
ENDBRANCH  18  27
BRANCH  18  29
ATOM     29  O           0     133.384 132.230 133.066  0.00  0.00    -0.362 OA
ATOM     30  H           0     133.389 132.546 132.152  0.00  0.00     0.213 HD
ENDBRANCH  18  29
TORSDOF 5
ENDMDL
MODEL 9
REMARK VINA RESULT:      -6.1      2.256      5.549
REMARK  5 active torsions:
REMARK  status: ('A' for Active; 'I' for Inactive)
REMARK    1  A    between atoms: C_6  and  C_7 
REMARK    2  A    between atoms: C_7  and  O_8 
REMARK    3  A    between atoms: O_8  and  C_9 
REMARK    4  A    between atoms: C_23  and  O_24 
REMARK    5  A    between atoms: C_23  and  O_25 
ROOT
ATOM      1  N           0     136.283 134.819 148.020  0.00  0.00    -0.235 N 
ATOM      2  H           0     135.486 135.367 147.952  0.00  0.00     0.174 HD
ATOM      3  H           0     136.953 135.019 148.692  0.00  0.00     0.174 HD
ATOM      4  C           0     136.451 133.810 147.213  0.00  0.00     0.672 C 
ATOM      5  N           0     135.521 133.480 146.242  0.00  0.00    -0.218 N 
ATOM      6  C           0     135.992 132.814 145.031  0.00  0.00     0.151 C 
ATOM      7  C           0     136.851 131.600 145.328  0.00  0.00     0.180 C 
ATOM      8  N           0     135.981 130.476 145.734  0.00  0.00    -0.216 N 
ATOM      9  C           0     136.613 129.812 146.757  0.00  0.00     0.670 C 
ATOM     10  N           0     136.336 128.589 147.118  0.00  0.00    -0.235 N 
ATOM     11  H           0     135.644 128.092 146.653  0.00  0.00     0.174 HD
ATOM     12  H           0     136.821 128.178 147.849  0.00  0.00     0.174 HD
ATOM     13  C           0     137.792 131.778 146.509  0.00  0.00     0.217 C 
ATOM     14  N           0     137.572 130.592 147.353  0.00  0.00    -0.191 N 
ATOM     15  N           0     137.563 133.009 147.267  0.00  0.00    -0.183 N 
ATOM     16  C           0     138.797 133.226 148.042  0.00  0.00     0.150 C 
ATOM     17  C           0     139.933 132.801 147.081  0.00  0.00     0.093 C 
ATOM     18  C           0     139.265 131.839 146.067  0.00  0.00     0.209 C 
ATOM     19  H           0     134.581 133.686 146.364  0.00  0.00     0.178 HD
ATOM     20  H           0     135.120 130.249 145.349  0.00  0.00     0.178 HD
ATOM     21  H           0     138.029 130.394 148.185  0.00  0.00     0.180 HD
ENDROOT
BRANCH   6  22
ATOM     22  C           0     136.812 133.808 144.208  0.00  0.00     0.206 C 
BRANCH  22  23
ATOM     23  O           0     136.143 134.060 142.945  0.00  0.00    -0.320 OA
BRANCH  23  24
ATOM     24  C           0     134.939 134.653 142.929  0.00  0.00     0.254 C 
ATOM     25  C           0     134.802 136.092 143.356  0.00  0.00     0.126 C 
ATOM     26  O           0     133.964 134.033 142.574  0.00  0.00    -0.266 OA
ENDBRANCH  23  24
ENDBRANCH  22  23
ENDBRANCH   6  22
BRANCH  18  27
ATOM     27  O           0     139.865 130.545 146.137  0.00  0.00    -0.362 OA
ATOM     28  H           0     140.001 130.350 147.074  0.00  0.00     0.213 HD
ENDBRANCH  18  27
BRANCH  18  29
ATOM     29  O           0     139.363 132.365 144.742  0.00  0.00    -0.362 OA
ATOM     30  H           0     139.825 133.212 144.812  0.00  0.00     0.213 HD
ENDBRANCH  18  29
TORSDOF 5
ENDMDL
