# created with PyMOL 2.3.4
@<TRIPOS>MOLECULE
ligand_out_0001
32 35 1                 
SMALL
USER_CHARGES
@<TRIPOS>ATOM
1	   N	133.407	134.882	140.146	N.3	1	UNK0	-0.235	
2	   N	133.225	132.986	141.520	N.pl3	1	UNK0	-0.200	
3	   N	134.279	134.938	142.330	N.3	1	UNK0	-0.211	
4	   C	133.627	134.291	141.287	C.3	1	UNK0	0.670	
5	   C	134.156	132.096	142.236	C.2	1	UNK0	0.244	
6	   C	134.642	132.820	143.495	C.3	1	UNK0	0.101	
7	   C	135.257	134.165	143.086	C.3	1	UNK0	0.119	
8	   C	136.485	133.874	142.213	C.2	1	UNK0	0.243	
9	   C	135.698	131.985	144.216	C.2	1	UNK0	0.177	
10	   C	137.440	133.033	143.068	C.3	1	UNK0	0.311	
11	   C	136.126	132.729	145.490	C.3	1	UNK0	0.134	
12	   C	136.768	134.059	145.052	C.2	1	UNK0	0.198	
13	   C	135.726	134.910	144.335	C.2	1	UNK0	0.182	
14	   C	137.137	131.885	146.269	C.2	1	UNK0	0.207	
15	   O	136.844	131.788	143.395	O.2	1	UNK0	-0.322	
16	   O	137.869	133.775	144.195	O.2	1	UNK0	-0.319	
17	   O	134.983	132.992	146.305	O.2	1	UNK0	-0.382	
18	   O	137.059	130.527	145.831	O.2	1	UNK0	-0.398	
19	   O	136.304	136.160	143.958	O.2	1	UNK0	-0.390	
20	   O	133.483	130.890	142.604	O.2	1	UNK0	-0.376	
21	   O	138.603	132.764	142.282	O.2	1	UNK0	-0.341	
22	   O	136.096	133.145	141.047	O.2	1	UNK0	-0.385	
23	   H	132.953	134.405	139.433	 H	1	UNK0	0.174	
24	   H	133.696	135.798	140.010	 H	1	UNK0	0.174	
25	   H	132.359	132.668	141.223	 H	1	UNK0	0.180	
26	   H	134.087	135.864	142.547	 H	1	UNK0	0.178	
27	   H	135.071	133.899	146.628	 H	1	UNK0	0.210	
28	   H	137.889	130.333	145.374	 H	1	UNK0	0.209	
29	   H	137.044	136.318	144.561	 H	1	UNK0	0.210	
30	   H	134.089	130.395	143.174	 H	1	UNK0	0.212	
31	   H	139.106	132.085	142.752	 H	1	UNK0	0.215	
32	   H	135.593	133.754	140.491	 H	1	UNK0	0.210	
@<TRIPOS>BOND
1 1 4 1
2 1 23 1
3 1 24 1
4 2 5 1
5 2 25 1
6 3 26 1
7 2 4 1
8 3 4 1
9 5 6 1
10 5 20 2
11 6 7 1
12 6 9 1
13 3 7 1
14 7 8 1
15 7 13 1
16 8 10 1
17 8 22 2
18 9 11 1
19 9 15 2
20 10 16 2
21 10 21 2
22 11 12 1
23 11 14 1
24 11 17 2
25 12 13 1
26 13 19 2
27 14 18 2
28 10 15 2
29 12 16 2
30 17 27 1
31 18 28 1
32 19 29 1
33 20 30 1
34 21 31 1
35 22 32 1
@<TRIPOS>SUBSTRUCTURE
1	UNK0	1	GROUP	1 ****	UNK
