MODEL 1
REMARK VINA RESULT:      -7.9      0.000      0.000
REMARK  7 active torsions:
REMARK  status: ('A' for Active; 'I' for Inactive)
REMARK    1  A    between atoms: C_6  and  O_7 
REMARK    2  A    between atoms: C_10  and  O_11 
REMARK    3  A    between atoms: C_15  and  O_16 
REMARK    4  A    between atoms: C_18  and  O_19 
REMARK    5  A    between atoms: C_18  and  C_20 
REMARK    6  A    between atoms: C_20  and  O_21 
REMARK    7  A    between atoms: C_23  and  O_24 
ROOT
ATOM      1  N           0     133.407 134.882 140.146  0.00  0.00    -0.235 N 
ATOM      2  H           0     132.953 134.405 139.433  0.00  0.00     0.174 HD
ATOM      3  H           0     133.696 135.798 140.010  0.00  0.00     0.174 HD
ATOM      4  C           0     133.627 134.291 141.287  0.00  0.00     0.670 C 
ATOM      5  N           0     133.225 132.986 141.520  0.00  0.00    -0.200 N 
ATOM      6  C           0     134.156 132.096 142.236  0.00  0.00     0.244 C 
ATOM      7  C           0     134.642 132.820 143.495  0.00  0.00     0.101 C 
ATOM      8  C           0     135.257 134.165 143.086  0.00  0.00     0.119 C 
ATOM      9  C           0     136.485 133.874 142.213  0.00  0.00     0.243 C 
ATOM     10  N           0     134.279 134.938 142.330  0.00  0.00    -0.211 N 
ATOM     11  C           0     135.698 131.985 144.216  0.00  0.00     0.177 C 
ATOM     12  O           0     136.844 131.788 143.395  0.00  0.00    -0.322 OA
ATOM     13  C           0     137.440 133.033 143.068  0.00  0.00     0.311 C 
ATOM     14  O           0     137.869 133.775 144.195  0.00  0.00    -0.319 OA
ATOM     15  C           0     136.126 132.729 145.490  0.00  0.00     0.134 C 
ATOM     16  C           0     136.768 134.059 145.052  0.00  0.00     0.198 C 
ATOM     17  C           0     135.726 134.910 144.335  0.00  0.00     0.182 C 
ATOM     18  H           0     132.359 132.668 141.223  0.00  0.00     0.180 HD
ATOM     19  H           0     134.087 135.864 142.547  0.00  0.00     0.178 HD
ENDROOT
BRANCH  15  20
ATOM     20  O           0     134.983 132.992 146.305  0.00  0.00    -0.382 OA
ATOM     21  H           0     135.071 133.899 146.628  0.00  0.00     0.210 HD
ENDBRANCH  15  20
BRANCH  15  22
ATOM     22  C           0     137.137 131.885 146.269  0.00  0.00     0.207 C 
BRANCH  22  23
ATOM     23  O           0     137.059 130.527 145.831  0.00  0.00    -0.398 OA
ATOM     24  H           0     137.889 130.333 145.374  0.00  0.00     0.209 HD
ENDBRANCH  22  23
ENDBRANCH  15  22
BRANCH  17  25
ATOM     25  O           0     136.304 136.160 143.958  0.00  0.00    -0.390 OA
ATOM     26  H           0     137.044 136.318 144.561  0.00  0.00     0.210 HD
ENDBRANCH  17  25
BRANCH   6  27
ATOM     27  O           0     133.483 130.890 142.604  0.00  0.00    -0.376 OA
ATOM     28  H           0     134.089 130.395 143.174  0.00  0.00     0.212 HD
ENDBRANCH   6  27
BRANCH  13  29
ATOM     29  O           0     138.603 132.764 142.282  0.00  0.00    -0.341 OA
ATOM     30  H           0     139.106 132.085 142.752  0.00  0.00     0.215 HD
ENDBRANCH  13  29
BRANCH   9  31
ATOM     31  O           0     136.096 133.145 141.047  0.00  0.00    -0.385 OA
ATOM     32  H           0     135.593 133.754 140.491  0.00  0.00     0.210 HD
ENDBRANCH   9  31
TORSDOF 7
ENDMDL
MODEL 2
REMARK VINA RESULT:      -7.3      1.737      2.347
REMARK  7 active torsions:
REMARK  status: ('A' for Active; 'I' for Inactive)
REMARK    1  A    between atoms: C_6  and  O_7 
REMARK    2  A    between atoms: C_10  and  O_11 
REMARK    3  A    between atoms: C_15  and  O_16 
REMARK    4  A    between atoms: C_18  and  O_19 
REMARK    5  A    between atoms: C_18  and  C_20 
REMARK    6  A    between atoms: C_20  and  O_21 
REMARK    7  A    between atoms: C_23  and  O_24 
ROOT
ATOM      1  N           0     135.020 136.273 142.886  0.00  0.00    -0.235 N 
ATOM      2  H           0     134.773 136.340 141.950  0.00  0.00     0.174 HD
ATOM      3  H           0     135.411 137.035 143.341  0.00  0.00     0.174 HD
ATOM      4  C           0     134.821 135.159 143.533  0.00  0.00     0.670 C 
ATOM      5  N           0     134.260 134.051 142.920  0.00  0.00    -0.200 N 
ATOM      6  C           0     134.843 132.731 143.217  0.00  0.00     0.244 C 
ATOM      7  C           0     134.968 132.590 144.737  0.00  0.00     0.101 C 
ATOM      8  C           0     135.790 133.768 145.276  0.00  0.00     0.119 C 
ATOM      9  C           0     137.201 133.670 144.682  0.00  0.00     0.243 C 
ATOM     10  N           0     135.165 135.022 144.873  0.00  0.00    -0.211 N 
ATOM     11  C           0     135.673 131.283 145.095  0.00  0.00     0.177 C 
ATOM     12  O           0     136.998 131.256 144.575  0.00  0.00    -0.322 OA
ATOM     13  C           0     137.767 132.315 145.122  0.00  0.00     0.311 C 
ATOM     14  O           0     137.882 132.269 146.533  0.00  0.00    -0.319 OA
ATOM     15  C           0     135.741 131.165 146.624  0.00  0.00     0.134 C 
ATOM     16  C           0     136.595 132.339 147.139  0.00  0.00     0.198 C 
ATOM     17  C           0     135.904 133.654 146.796  0.00  0.00     0.182 C 
ATOM     18  H           0     133.507 134.140 142.315  0.00  0.00     0.180 HD
ATOM     19  H           0     134.992 135.731 145.512  0.00  0.00     0.178 HD
ENDROOT
BRANCH  15  20
ATOM     20  O           0     134.425 131.250 147.175  0.00  0.00    -0.382 OA
ATOM     21  H           0     133.938 131.890 146.640  0.00  0.00     0.210 HD
ENDBRANCH  15  20
BRANCH  15  22
ATOM     22  C           0     136.383 129.833 147.014  0.00  0.00     0.207 C 
BRANCH  22  23
ATOM     23  O           0     135.807 128.782 146.236  0.00  0.00    -0.398 OA
ATOM     24  H           0     136.348 128.697 145.439  0.00  0.00     0.209 HD
ENDBRANCH  22  23
ENDBRANCH  15  22
BRANCH  17  25
ATOM     25  O           0     136.672 134.746 147.302  0.00  0.00    -0.390 OA
ATOM     26  H           0     137.132 135.137 146.546  0.00  0.00     0.210 HD
ENDBRANCH  17  25
BRANCH   6  27
ATOM     27  O           0     133.992 131.702 142.706  0.00  0.00    -0.376 OA
ATOM     28  H           0     133.877 131.056 143.418  0.00  0.00     0.212 HD
ENDBRANCH   6  27
BRANCH  13  29
ATOM     29  O           0     139.091 132.206 144.596  0.00  0.00    -0.341 OA
ATOM     30  H           0     139.170 131.319 144.220  0.00  0.00     0.215 HD
ENDBRANCH  13  29
BRANCH   9  31
ATOM     31  O           0     137.138 133.736 143.255  0.00  0.00    -0.385 OA
ATOM     32  H           0     137.038 134.669 143.022  0.00  0.00     0.210 HD
ENDBRANCH   9  31
TORSDOF 7
ENDMDL
MODEL 3
REMARK VINA RESULT:      -7.2      2.171      4.008
REMARK  7 active torsions:
REMARK  status: ('A' for Active; 'I' for Inactive)
REMARK    1  A    between atoms: C_6  and  O_7 
REMARK    2  A    between atoms: C_10  and  O_11 
REMARK    3  A    between atoms: C_15  and  O_16 
REMARK    4  A    between atoms: C_18  and  O_19 
REMARK    5  A    between atoms: C_18  and  C_20 
REMARK    6  A    between atoms: C_20  and  O_21 
REMARK    7  A    between atoms: C_23  and  O_24 
ROOT
ATOM      1  N           0     133.608 131.855 142.307  0.00  0.00    -0.235 N 
ATOM      2  H           0     133.582 132.329 141.461  0.00  0.00     0.174 HD
ATOM      3  H           0     132.786 131.534 142.710  0.00  0.00     0.174 HD
ATOM      4  C           0     134.750 131.647 142.901  0.00  0.00     0.670 C 
ATOM      5  N           0     135.945 132.085 142.355  0.00  0.00    -0.200 N 
ATOM      6  C           0     136.938 132.687 143.262  0.00  0.00     0.244 C 
ATOM      7  C           0     137.120 131.754 144.463  0.00  0.00     0.101 C 
ATOM      8  C           0     135.752 131.509 145.112  0.00  0.00     0.119 C 
ATOM      9  C           0     135.235 132.854 145.642  0.00  0.00     0.243 C 
ATOM     10  N           0     134.829 130.977 144.117  0.00  0.00    -0.211 N 
ATOM     11  C           0     138.057 132.386 145.492  0.00  0.00     0.177 C 
ATOM     12  O           0     137.514 133.599 146.001  0.00  0.00    -0.322 OA
ATOM     13  C           0     136.276 133.356 146.649  0.00  0.00     0.311 C 
ATOM     14  O           0     136.369 132.461 147.742  0.00  0.00    -0.319 OA
ATOM     15  C           0     138.242 131.402 146.656  0.00  0.00     0.134 C 
ATOM     16  C           0     136.862 131.197 147.310  0.00  0.00     0.198 C 
ATOM     17  C           0     135.915 130.560 146.299  0.00  0.00     0.182 C 
ATOM     18  H           0     136.124 131.998 141.406  0.00  0.00     0.180 HD
ATOM     19  H           0     134.295 130.187 144.292  0.00  0.00     0.178 HD
ENDROOT
BRANCH  15  20
ATOM     20  O           0     138.730 130.153 146.162  0.00  0.00    -0.382 OA
ATOM     21  H           0     138.484 130.106 145.228  0.00  0.00     0.210 HD
ENDBRANCH  15  20
BRANCH  15  22
ATOM     22  C           0     139.228 131.980 147.672  0.00  0.00     0.207 C 
BRANCH  22  23
ATOM     23  O           0     140.061 132.947 147.029  0.00  0.00    -0.398 OA
ATOM     24  H           0     140.192 132.643 146.121  0.00  0.00     0.209 HD
ENDBRANCH  22  23
ENDBRANCH  15  22
BRANCH  17  25
ATOM     25  O           0     134.644 130.334 146.909  0.00  0.00    -0.390 OA
ATOM     26  H           0     134.385 131.166 147.331  0.00  0.00     0.210 HD
ENDBRANCH  17  25
BRANCH   6  27
ATOM     27  O           0     138.184 132.842 142.579  0.00  0.00    -0.376 OA
ATOM     28  H           0     138.616 133.620 142.960  0.00  0.00     0.212 HD
ENDBRANCH   6  27
BRANCH  13  29
ATOM     29  O           0     135.808 134.601 147.172  0.00  0.00    -0.341 OA
ATOM     30  H           0     136.029 134.609 148.113  0.00  0.00     0.215 HD
ENDBRANCH  13  29
BRANCH   9  31
ATOM     31  O           0     135.102 133.786 144.566  0.00  0.00    -0.385 OA
ATOM     32  H           0     134.361 134.366 144.788  0.00  0.00     0.210 HD
ENDBRANCH   9  31
TORSDOF 7
ENDMDL
MODEL 4
REMARK VINA RESULT:      -7.2      3.099      5.205
REMARK  7 active torsions:
REMARK  status: ('A' for Active; 'I' for Inactive)
REMARK    1  A    between atoms: C_6  and  O_7 
REMARK    2  A    between atoms: C_10  and  O_11 
REMARK    3  A    between atoms: C_15  and  O_16 
REMARK    4  A    between atoms: C_18  and  O_19 
REMARK    5  A    between atoms: C_18  and  C_20 
REMARK    6  A    between atoms: C_20  and  O_21 
REMARK    7  A    between atoms: C_23  and  O_24 
ROOT
ATOM      1  N           0     134.384 130.626 149.334  0.00  0.00    -0.235 N 
ATOM      2  H           0     134.618 130.676 150.275  0.00  0.00     0.174 HD
ATOM      3  H           0     133.910 129.851 148.993  0.00  0.00     0.174 HD
ATOM      4  C           0     134.702 131.601 148.530  0.00  0.00     0.670 C 
ATOM      5  N           0     135.373 132.726 148.981  0.00  0.00    -0.200 N 
ATOM      6  C           0     136.456 133.265 148.140  0.00  0.00     0.244 C 
ATOM      7  C           0     135.931 133.400 146.707  0.00  0.00     0.101 C 
ATOM      8  C           0     135.404 132.036 146.244  0.00  0.00     0.119 C 
ATOM      9  C           0     136.587 131.058 146.217  0.00  0.00     0.243 C 
ATOM     10  N           0     134.388 131.563 147.177  0.00  0.00    -0.211 N 
ATOM     11  C           0     137.050 133.849 145.769  0.00  0.00     0.177 C 
ATOM     12  O           0     138.100 132.888 145.727  0.00  0.00    -0.322 OA
ATOM     13  C           0     137.616 131.645 145.244  0.00  0.00     0.311 C 
ATOM     14  O           0     137.073 131.712 143.938  0.00  0.00    -0.319 OA
ATOM     15  C           0     136.471 134.008 144.356  0.00  0.00     0.134 C 
ATOM     16  C           0     135.978 132.621 143.901  0.00  0.00     0.198 C 
ATOM     17  C           0     134.855 132.159 144.823  0.00  0.00     0.182 C 
ATOM     18  H           0     135.138 133.146 149.823  0.00  0.00     0.180 HD
ATOM     19  H           0     133.527 131.240 146.869  0.00  0.00     0.178 HD
ENDROOT
BRANCH  15  20
ATOM     20  O           0     135.375 134.924 144.382  0.00  0.00    -0.382 OA
ATOM     21  H           0     135.141 135.107 143.462  0.00  0.00     0.210 HD
ENDBRANCH  15  20
BRANCH  15  22
ATOM     22  C           0     137.555 134.522 143.406  0.00  0.00     0.207 C 
BRANCH  22  23
ATOM     23  O           0     137.434 133.861 142.145  0.00  0.00    -0.398 OA
ATOM     24  H           0     136.519 133.557 142.076  0.00  0.00     0.209 HD
ENDBRANCH  22  23
ENDBRANCH  15  22
BRANCH  17  25
ATOM     25  O           0     134.368 130.889 144.386  0.00  0.00    -0.390 OA
ATOM     26  H           0     133.693 130.615 145.022  0.00  0.00     0.210 HD
ENDBRANCH  17  25
BRANCH   6  27
ATOM     27  O           0     136.853 134.548 148.629  0.00  0.00    -0.376 OA
ATOM     28  H           0     136.507 135.204 148.006  0.00  0.00     0.212 HD
ENDBRANCH   6  27
BRANCH  13  29
ATOM     29  O           0     138.723 130.743 145.187  0.00  0.00    -0.341 OA
ATOM     30  H           0     138.814 130.357 146.068  0.00  0.00     0.215 HD
ENDBRANCH  13  29
BRANCH   9  31
ATOM     31  O           0     137.155 130.940 147.523  0.00  0.00    -0.385 OA
ATOM     32  H           0     138.115 130.920 147.410  0.00  0.00     0.210 HD
ENDBRANCH   9  31
TORSDOF 7
ENDMDL
MODEL 5
REMARK VINA RESULT:      -7.1      2.742      4.842
REMARK  7 active torsions:
REMARK  status: ('A' for Active; 'I' for Inactive)
REMARK    1  A    between atoms: C_6  and  O_7 
REMARK    2  A    between atoms: C_10  and  O_11 
REMARK    3  A    between atoms: C_15  and  O_16 
REMARK    4  A    between atoms: C_18  and  O_19 
REMARK    5  A    between atoms: C_18  and  C_20 
REMARK    6  A    between atoms: C_20  and  O_21 
REMARK    7  A    between atoms: C_23  and  O_24 
ROOT
ATOM      1  N           0     137.407 130.274 147.569  0.00  0.00    -0.235 N 
ATOM      2  H           0     137.853 130.581 148.374  0.00  0.00     0.174 HD
ATOM      3  H           0     137.564 129.376 147.239  0.00  0.00     0.174 HD
ATOM      4  C           0     136.594 131.069 146.932  0.00  0.00     0.670 C 
ATOM      5  N           0     136.340 132.358 147.374  0.00  0.00    -0.200 N 
ATOM      6  C           0     136.277 133.432 146.368  0.00  0.00     0.244 C 
ATOM      7  C           0     135.347 132.979 145.238  0.00  0.00     0.101 C 
ATOM      8  C           0     135.853 131.640 144.687  0.00  0.00     0.119 C 
ATOM      9  C           0     137.243 131.875 144.080  0.00  0.00     0.243 C 
ATOM     10  N           0     135.941 130.669 145.772  0.00  0.00    -0.211 N 
ATOM     11  C           0     135.335 134.012 144.112  0.00  0.00     0.177 C 
ATOM     12  O           0     136.629 134.157 143.537  0.00  0.00    -0.322 OA
ATOM     13  C           0     137.066 132.928 142.980  0.00  0.00     0.311 C 
ATOM     14  O           0     136.220 132.430 141.959  0.00  0.00    -0.319 OA
ATOM     15  C           0     134.362 133.537 143.023  0.00  0.00     0.134 C 
ATOM     16  C           0     134.907 132.209 142.464  0.00  0.00     0.198 C 
ATOM     17  C           0     134.921 131.164 143.574  0.00  0.00     0.182 C 
ATOM     18  H           0     136.208 132.547 148.316  0.00  0.00     0.180 HD
ATOM     19  H           0     135.557 129.783 145.691  0.00  0.00     0.178 HD
ENDROOT
BRANCH  15  20
ATOM     20  O           0     133.067 133.325 143.588  0.00  0.00    -0.382 OA
ATOM     21  H           0     132.522 134.080 143.329  0.00  0.00     0.210 HD
ENDBRANCH  15  20
BRANCH  15  22
ATOM     22  C           0     134.278 134.584 141.910  0.00  0.00     0.207 C 
BRANCH  22  23
ATOM     23  O           0     134.442 135.888 142.471  0.00  0.00    -0.398 OA
ATOM     24  H           0     134.432 136.513 141.733  0.00  0.00     0.209 HD
ENDBRANCH  22  23
ENDBRANCH  15  22
BRANCH  17  25
ATOM     25  O           0     135.392 129.919 143.055  0.00  0.00    -0.390 OA
ATOM     26  H           0     136.006 130.131 142.338  0.00  0.00     0.210 HD
ENDBRANCH  17  25
BRANCH   6  27
ATOM     27  O           0     135.763 134.624 146.967  0.00  0.00    -0.376 OA
ATOM     28  H           0     136.301 134.795 147.753  0.00  0.00     0.212 HD
ENDBRANCH   6  27
BRANCH  13  29
ATOM     29  O           0     138.345 133.153 142.384  0.00  0.00    -0.341 OA
ATOM     30  H           0     138.931 132.455 142.708  0.00  0.00     0.215 HD
ENDBRANCH  13  29
BRANCH   9  31
ATOM     31  O           0     138.141 132.358 145.083  0.00  0.00    -0.385 OA
ATOM     32  H           0     138.656 131.598 145.385  0.00  0.00     0.210 HD
ENDBRANCH   9  31
TORSDOF 7
ENDMDL
MODEL 6
REMARK VINA RESULT:      -6.8      2.326      3.572
REMARK  7 active torsions:
REMARK  status: ('A' for Active; 'I' for Inactive)
REMARK    1  A    between atoms: C_6  and  O_7 
REMARK    2  A    between atoms: C_10  and  O_11 
REMARK    3  A    between atoms: C_15  and  O_16 
REMARK    4  A    between atoms: C_18  and  O_19 
REMARK    5  A    between atoms: C_18  and  C_20 
REMARK    6  A    between atoms: C_20  and  O_21 
REMARK    7  A    between atoms: C_23  and  O_24 
ROOT
ATOM      1  N           0     136.777 134.731 142.986  0.00  0.00    -0.235 N 
ATOM      2  H           0     136.661 134.576 142.036  0.00  0.00     0.174 HD
ATOM      3  H           0     137.387 135.419 143.295  0.00  0.00     0.174 HD
ATOM      4  C           0     136.111 134.016 143.849  0.00  0.00     0.670 C 
ATOM      5  N           0     135.227 133.028 143.446  0.00  0.00    -0.200 N 
ATOM      6  C           0     135.232 131.755 144.189  0.00  0.00     0.244 C 
ATOM      7  C           0     135.156 132.071 145.686  0.00  0.00     0.101 C 
ATOM      8  C           0     136.312 133.010 146.053  0.00  0.00     0.119 C 
ATOM      9  C           0     137.627 132.258 145.802  0.00  0.00     0.243 C 
ATOM     10  N           0     136.254 134.204 145.219  0.00  0.00    -0.211 N 
ATOM     11  C           0     135.273 130.788 146.508  0.00  0.00     0.177 C 
ATOM     12  O           0     136.528 130.154 146.292  0.00  0.00    -0.322 OA
ATOM     13  C           0     137.590 131.007 146.686  0.00  0.00     0.311 C 
ATOM     14  O           0     137.550 131.375 148.053  0.00  0.00    -0.319 OA
ATOM     15  C           0     135.152 131.147 147.996  0.00  0.00     0.134 C 
ATOM     16  C           0     136.339 132.064 148.347  0.00  0.00     0.198 C 
ATOM     17  C           0     136.236 133.353 147.540  0.00  0.00     0.182 C 
ATOM     18  H           0     134.624 133.169 142.701  0.00  0.00     0.180 HD
ATOM     19  H           0     136.307 135.093 145.602  0.00  0.00     0.178 HD
ENDROOT
BRANCH  15  20
ATOM     20  O           0     133.924 131.840 148.229  0.00  0.00    -0.382 OA
ATOM     21  H           0     134.134 132.601 148.788  0.00  0.00     0.210 HD
ENDBRANCH  15  20
BRANCH  15  22
ATOM     22  C           0     135.198 129.873 148.842  0.00  0.00     0.207 C 
BRANCH  22  23
ATOM     23  O           0     134.747 128.766 148.060  0.00  0.00    -0.398 OA
ATOM     24  H           0     135.188 128.833 147.202  0.00  0.00     0.209 HD
ENDBRANCH  22  23
ENDBRANCH  15  22
BRANCH  17  25
ATOM     25  O           0     137.315 134.223 147.887  0.00  0.00    -0.390 OA
ATOM     26  H           0     137.720 133.860 148.687  0.00  0.00     0.210 HD
ENDBRANCH  17  25
BRANCH   6  27
ATOM     27  O           0     134.102 130.969 143.805  0.00  0.00    -0.376 OA
ATOM     28  H           0     134.449 130.155 143.411  0.00  0.00     0.212 HD
ENDBRANCH   6  27
BRANCH  13  29
ATOM     29  O           0     138.814 130.297 146.484  0.00  0.00    -0.341 OA
ATOM     30  H           0     139.037 129.881 147.327  0.00  0.00     0.215 HD
ENDBRANCH  13  29
BRANCH   9  31
ATOM     31  O           0     137.723 131.886 144.425  0.00  0.00    -0.385 OA
ATOM     32  H           0     136.896 131.441 144.197  0.00  0.00     0.210 HD
ENDBRANCH   9  31
TORSDOF 7
ENDMDL
MODEL 7
REMARK VINA RESULT:      -6.8      2.156      4.107
REMARK  7 active torsions:
REMARK  status: ('A' for Active; 'I' for Inactive)
REMARK    1  A    between atoms: C_6  and  O_7 
REMARK    2  A    between atoms: C_10  and  O_11 
REMARK    3  A    between atoms: C_15  and  O_16 
REMARK    4  A    between atoms: C_18  and  O_19 
REMARK    5  A    between atoms: C_18  and  C_20 
REMARK    6  A    between atoms: C_20  and  O_21 
REMARK    7  A    between atoms: C_23  and  O_24 
ROOT
ATOM      1  N           0     135.717 133.434 141.463  0.00  0.00    -0.235 N 
ATOM      2  H           0     136.152 134.019 140.822  0.00  0.00     0.174 HD
ATOM      3  H           0     134.761 133.282 141.410  0.00  0.00     0.174 HD
ATOM      4  C           0     136.420 132.851 142.393  0.00  0.00     0.670 C 
ATOM      5  N           0     137.789 133.041 142.497  0.00  0.00    -0.200 N 
ATOM      6  C           0     138.358 133.222 143.844  0.00  0.00     0.244 C 
ATOM      7  C           0     137.825 132.106 144.747  0.00  0.00     0.101 C 
ATOM      8  C           0     136.292 132.132 144.711  0.00  0.00     0.119 C 
ATOM      9  C           0     135.829 133.470 145.303  0.00  0.00     0.243 C 
ATOM     10  N           0     135.834 132.011 143.332  0.00  0.00    -0.211 N 
ATOM     11  C           0     138.296 132.314 146.185  0.00  0.00     0.177 C 
ATOM     12  O           0     137.798 133.536 146.716  0.00  0.00    -0.322 OA
ATOM     13  C           0     136.380 133.530 146.732  0.00  0.00     0.311 C 
ATOM     14  O           0     135.822 132.489 147.514  0.00  0.00    -0.319 OA
ATOM     15  C           0     137.773 131.153 147.044  0.00  0.00     0.134 C 
ATOM     16  C           0     136.234 131.219 147.019  0.00  0.00     0.198 C 
ATOM     17  C           0     135.745 131.008 145.590  0.00  0.00     0.182 C 
ATOM     18  H           0     138.354 133.052 141.709  0.00  0.00     0.180 HD
ATOM     19  H           0     135.153 131.370 143.078  0.00  0.00     0.178 HD
ENDROOT
BRANCH  15  20
ATOM     20  O           0     138.210 129.909 146.496  0.00  0.00    -0.382 OA
ATOM     21  H           0     138.678 130.113 145.676  0.00  0.00     0.210 HD
ENDBRANCH  15  20
BRANCH  15  22
ATOM     22  C           0     138.285 131.298 148.479  0.00  0.00     0.207 C 
BRANCH  22  23
ATOM     23  O           0     139.533 131.994 148.470  0.00  0.00    -0.398 OA
ATOM     24  H           0     139.427 132.764 149.044  0.00  0.00     0.209 HD
ENDBRANCH  22  23
ENDBRANCH  15  22
BRANCH  17  25
ATOM     25  O           0     134.317 131.031 145.565  0.00  0.00    -0.390 OA
ATOM     26  H           0     134.059 131.447 144.730  0.00  0.00     0.210 HD
ENDBRANCH  17  25
BRANCH   6  27
ATOM     27  O           0     139.784 133.148 143.778  0.00  0.00    -0.376 OA
ATOM     28  H           0     140.090 133.983 143.393  0.00  0.00     0.212 HD
ENDBRANCH   6  27
BRANCH  13  29
ATOM     29  O           0     135.947 134.761 147.313  0.00  0.00    -0.341 OA
ATOM     30  H           0     136.034 135.438 146.629  0.00  0.00     0.215 HD
ENDBRANCH  13  29
BRANCH   9  31
ATOM     31  O           0     136.350 134.554 144.530  0.00  0.00    -0.385 OA
ATOM     32  H           0     136.447 134.230 143.624  0.00  0.00     0.210 HD
ENDBRANCH   9  31
TORSDOF 7
ENDMDL
MODEL 8
REMARK VINA RESULT:      -6.5      9.306     10.933
REMARK  7 active torsions:
REMARK  status: ('A' for Active; 'I' for Inactive)
REMARK    1  A    between atoms: C_6  and  O_7 
REMARK    2  A    between atoms: C_10  and  O_11 
REMARK    3  A    between atoms: C_15  and  O_16 
REMARK    4  A    between atoms: C_18  and  O_19 
REMARK    5  A    between atoms: C_18  and  C_20 
REMARK    6  A    between atoms: C_20  and  O_21 
REMARK    7  A    between atoms: C_23  and  O_24 
ROOT
ATOM      1  N           0     129.963 137.799 133.180  0.00  0.00    -0.235 N 
ATOM      2  H           0     130.308 138.678 133.404  0.00  0.00     0.174 HD
ATOM      3  H           0     129.006 137.662 133.094  0.00  0.00     0.174 HD
ATOM      4  C           0     130.784 136.805 132.992  0.00  0.00     0.670 C 
ATOM      5  N           0     132.156 136.963 133.101  0.00  0.00    -0.200 N 
ATOM      6  C           0     132.918 135.908 133.790  0.00  0.00     0.244 C 
ATOM      7  C           0     132.504 134.554 133.205  0.00  0.00     0.101 C 
ATOM      8  C           0     130.983 134.406 133.331  0.00  0.00     0.119 C 
ATOM      9  C           0     130.633 134.393 134.826  0.00  0.00     0.243 C 
ATOM     10  N           0     130.327 135.531 132.675  0.00  0.00    -0.211 N 
ATOM     11  C           0     133.183 133.415 133.964  0.00  0.00     0.177 C 
ATOM     12  O           0     132.788 133.403 135.331  0.00  0.00    -0.322 OA
ATOM     13  C           0     131.387 133.208 135.441  0.00  0.00     0.311 C 
ATOM     14  O           0     130.932 131.993 134.874  0.00  0.00    -0.319 OA
ATOM     15  C           0     132.772 132.083 133.319  0.00  0.00     0.134 C 
ATOM     16  C           0     131.247 131.943 133.486  0.00  0.00     0.198 C 
ATOM     17  C           0     130.551 133.069 132.730  0.00  0.00     0.182 C 
ATOM     18  H           0     132.601 137.743 132.735  0.00  0.00     0.180 HD
ATOM     19  H           0     129.606 135.398 132.041  0.00  0.00     0.178 HD
ENDROOT
BRANCH  15  20
ATOM     20  O           0     133.104 132.094 131.930  0.00  0.00    -0.382 OA
ATOM     21  H           0     132.819 132.949 131.580  0.00  0.00     0.210 HD
ENDBRANCH  15  20
BRANCH  15  22
ATOM     22  C           0     133.490 130.926 134.016  0.00  0.00     0.207 C 
BRANCH  22  23
ATOM     23  O           0     134.736 131.387 134.541  0.00  0.00    -0.398 OA
ATOM     24  H           0     134.995 132.153 134.011  0.00  0.00     0.209 HD
ENDBRANCH  22  23
ENDBRANCH  15  22
BRANCH  17  25
ATOM     25  O           0     129.135 132.924 132.851  0.00  0.00    -0.390 OA
ATOM     26  H           0     128.917 132.040 132.525  0.00  0.00     0.210 HD
ENDBRANCH  17  25
BRANCH   6  27
ATOM     27  O           0     134.318 136.112 133.586  0.00  0.00    -0.376 OA
ATOM     28  H           0     134.414 136.970 133.146  0.00  0.00     0.212 HD
ENDBRANCH   6  27
BRANCH  13  29
ATOM     29  O           0     131.064 133.163 136.832  0.00  0.00    -0.341 OA
ATOM     30  H           0     131.845 133.470 137.310  0.00  0.00     0.215 HD
ENDBRANCH  13  29
BRANCH   9  31
ATOM     31  O           0     131.053 135.615 135.438  0.00  0.00    -0.385 OA
ATOM     32  H           0     130.320 136.238 135.350  0.00  0.00     0.210 HD
ENDBRANCH   9  31
TORSDOF 7
ENDMDL
MODEL 9
REMARK VINA RESULT:      -6.2      8.530     10.793
REMARK  7 active torsions:
REMARK  status: ('A' for Active; 'I' for Inactive)
REMARK    1  A    between atoms: C_6  and  O_7 
REMARK    2  A    between atoms: C_10  and  O_11 
REMARK    3  A    between atoms: C_15  and  O_16 
REMARK    4  A    between atoms: C_18  and  O_19 
REMARK    5  A    between atoms: C_18  and  C_20 
REMARK    6  A    between atoms: C_20  and  O_21 
REMARK    7  A    between atoms: C_23  and  O_24 
ROOT
ATOM      1  N           0     131.410 136.992 136.465  0.00  0.00    -0.235 N 
ATOM      2  H           0     131.971 137.340 137.177  0.00  0.00     0.174 HD
ATOM      3  H           0     130.486 137.276 136.392  0.00  0.00     0.174 HD
ATOM      4  C           0     131.902 136.145 135.604  0.00  0.00     0.670 C 
ATOM      5  N           0     133.219 135.720 135.672  0.00  0.00    -0.200 N 
ATOM      6  C           0     133.494 134.292 135.437  0.00  0.00     0.244 C 
ATOM      7  C           0     132.781 133.869 134.149  0.00  0.00     0.101 C 
ATOM      8  C           0     131.289 134.202 134.278  0.00  0.00     0.119 C 
ATOM      9  C           0     130.716 133.359 135.426  0.00  0.00     0.243 C 
ATOM     10  N           0     131.130 135.621 134.574  0.00  0.00    -0.211 N 
ATOM     11  C           0     132.941 132.367 133.919  0.00  0.00     0.177 C 
ATOM     12  O           0     132.345 131.621 134.975  0.00  0.00    -0.322 OA
ATOM     13  C           0     130.955 131.892 135.051  0.00  0.00     0.311 C 
ATOM     14  O           0     130.244 131.566 133.871  0.00  0.00    -0.319 OA
ATOM     15  C           0     132.246 131.997 132.601  0.00  0.00     0.134 C 
ATOM     16  C           0     130.747 132.310 132.766  0.00  0.00     0.198 C 
ATOM     17  C           0     130.567 133.807 132.990  0.00  0.00     0.182 C 
ATOM     18  H           0     133.936 136.342 135.867  0.00  0.00     0.180 HD
ATOM     19  H           0     130.515 136.178 134.072  0.00  0.00     0.178 HD
ENDROOT
BRANCH  15  20
ATOM     20  O           0     132.786 132.777 131.533  0.00  0.00    -0.382 OA
ATOM     21  H           0     133.713 132.519 131.438  0.00  0.00     0.210 HD
ENDBRANCH  15  20
BRANCH  15  22
ATOM     22  C           0     132.447 130.508 132.309  0.00  0.00     0.207 C 
BRANCH  22  23
ATOM     23  O           0     131.253 129.971 131.738  0.00  0.00    -0.398 OA
ATOM     24  H           0     130.626 130.702 131.662  0.00  0.00     0.209 HD
ENDBRANCH  22  23
ENDBRANCH  15  22
BRANCH  17  25
ATOM     25  O           0     129.176 134.110 133.108  0.00  0.00    -0.390 OA
ATOM     26  H           0     129.066 135.028 132.825  0.00  0.00     0.210 HD
ENDBRANCH  17  25
BRANCH   6  27
ATOM     27  O           0     134.902 134.089 135.296  0.00  0.00    -0.376 OA
ATOM     28  H           0     135.298 134.963 135.166  0.00  0.00     0.212 HD
ENDBRANCH   6  27
BRANCH  13  29
ATOM     29  O           0     130.413 131.083 136.097  0.00  0.00    -0.341 OA
ATOM     30  H           0     129.556 131.464 136.329  0.00  0.00     0.215 HD
ENDBRANCH  13  29
BRANCH   9  31
ATOM     31  O           0     131.389 133.671 136.647  0.00  0.00    -0.385 OA
ATOM     32  H           0     131.743 134.566 136.551  0.00  0.00     0.210 HD
ENDBRANCH   9  31
TORSDOF 7
ENDMDL
