# created with PyMOL 2.3.4
@<TRIPOS>MOLECULE
ligand_out_0001
33 35 1                 
SMALL
USER_CHARGES
@<TRIPOS>ATOM
1	   N	131.686	132.136	134.967	N.3	1	UNK0	-0.235	
2	   N	131.268	134.312	135.754	N.3	1	UNK0	-0.218	
3	   N	131.116	136.972	134.198	N.3	1	UNK0	-0.216	
4	   N	130.482	137.573	131.999	N.3	1	UNK0	-0.235	
5	   N	132.008	135.822	132.453	N.3	1	UNK0	-0.191	
6	   N	132.646	133.986	133.898	N.3	1	UNK0	-0.179	
7	   N	133.557	136.051	139.459	N.pl3	1	UNK0	-0.346	
8	   C	131.860	133.424	134.873	C.3	1	UNK0	0.672	
9	   C	131.944	135.578	136.022	C.3	1	UNK0	0.151	
10	   C	132.320	136.317	134.753	C.3	1	UNK0	0.180	
11	   C	131.160	136.834	132.831	C.3	1	UNK0	0.670	
12	   C	132.797	135.416	133.626	C.3	1	UNK0	0.217	
13	   C	133.544	133.286	132.967	C.3	1	UNK0	0.106	
14	   C	132.773	132.862	131.715	C.3	1	UNK0	0.033	
15	   C	134.658	134.285	132.587	C.3	1	UNK0	0.098	
16	   C	134.301	135.597	133.339	C.3	1	UNK0	0.210	
17	   C	133.217	135.298	136.824	C.2	1	UNK0	0.208	
18	   C	132.971	134.866	139.197	C.2	1	UNK0	0.358	
19	   O	132.906	134.411	137.931	O.2	1	UNK0	-0.302	
20	   O	132.500	134.208	140.103	O.co2	1	UNK0	-0.239	
21	   O	134.534	136.737	132.509	O.2	1	UNK0	-0.362	
22	   O	135.036	135.699	134.560	O.2	1	UNK0	-0.362	
23	   H	131.126	131.771	135.670	 H	1	UNK0	0.174	
24	   H	132.112	131.541	134.329	 H	1	UNK0	0.174	
25	   H	129.900	138.272	132.334	 H	1	UNK0	0.174	
26	   H	130.560	137.422	131.044	 H	1	UNK0	0.174	
27	   H	130.424	134.098	136.182	 H	1	UNK0	0.178	
28	   H	130.420	137.418	134.706	 H	1	UNK0	0.178	
29	   H	132.076	135.443	131.562	 H	1	UNK0	0.180	
30	   H	133.934	136.576	138.735	 H	1	UNK0	0.161	
31	   H	133.604	136.378	140.371	 H	1	UNK0	0.161	
32	   H	134.857	137.441	133.087	 H	1	UNK0	0.213	
33	   H	135.704	136.385	134.428	 H	1	UNK0	0.213	
@<TRIPOS>BOND
1 1 8 1
2 1 23 1
3 1 24 1
4 2 9 1
5 2 27 1
6 3 11 1
7 3 28 1
8 4 25 1
9 4 26 1
10 5 29 1
11 6 13 1
12 7 30 1
13 7 31 1
14 2 8 1
15 6 8 1
16 9 10 1
17 9 17 1
18 3 10 1
19 10 12 1
20 4 11 1
21 5 11 1
22 5 12 1
23 6 12 1
24 12 16 1
25 13 14 1
26 13 15 1
27 15 16 1
28 16 21 2
29 16 22 2
30 17 19 2
31 7 18 1
32 18 20 2
33 18 19 2
34 21 32 1
35 22 33 1
@<TRIPOS>SUBSTRUCTURE
1	UNK0	1	GROUP	1 ****	UNK
