MODEL 1
REMARK VINA RESULT:      -7.0      0.000      0.000
REMARK  5 active torsions:
REMARK  status: ('A' for Active; 'I' for Inactive)
REMARK    1  A    between atoms: C_6  and  C_7 
REMARK    2  A    between atoms: C_7  and  O_8 
REMARK    3  A    between atoms: O_8  and  C_9 
REMARK       I    between atoms: C_9  and  N_10 
REMARK    4  A    between atoms: C_24  and  O_25 
REMARK    5  A    between atoms: C_24  and  O_26 
ROOT
ATOM      1  N           0     131.686 132.136 134.967  0.00  0.00    -0.235 N 
ATOM      2  H           0     131.126 131.771 135.670  0.00  0.00     0.174 HD
ATOM      3  H           0     132.112 131.541 134.329  0.00  0.00     0.174 HD
ATOM      4  C           0     131.860 133.424 134.873  0.00  0.00     0.672 C 
ATOM      5  N           0     131.268 134.312 135.754  0.00  0.00    -0.218 N 
ATOM      6  C           0     131.944 135.578 136.022  0.00  0.00     0.151 C 
ATOM      7  C           0     132.320 136.317 134.753  0.00  0.00     0.180 C 
ATOM      8  N           0     131.116 136.972 134.198  0.00  0.00    -0.216 N 
ATOM      9  C           0     131.160 136.834 132.831  0.00  0.00     0.670 C 
ATOM     10  N           0     130.482 137.573 131.999  0.00  0.00    -0.235 N 
ATOM     11  H           0     129.900 138.272 132.334  0.00  0.00     0.174 HD
ATOM     12  H           0     130.560 137.422 131.044  0.00  0.00     0.174 HD
ATOM     13  C           0     132.797 135.416 133.626  0.00  0.00     0.217 C 
ATOM     14  N           0     132.008 135.822 132.453  0.00  0.00    -0.191 N 
ATOM     15  N           0     132.646 133.986 133.898  0.00  0.00    -0.179 N 
ATOM     16  C           0     133.544 133.286 132.967  0.00  0.00     0.106 C 
ATOM     17  C           0     132.773 132.862 131.715  0.00  0.00     0.033 C 
ATOM     18  C           0     134.658 134.285 132.587  0.00  0.00     0.098 C 
ATOM     19  C           0     134.301 135.597 133.339  0.00  0.00     0.210 C 
ATOM     20  H           0     130.424 134.098 136.182  0.00  0.00     0.178 HD
ATOM     21  H           0     130.420 137.418 134.706  0.00  0.00     0.178 HD
ATOM     22  H           0     132.076 135.443 131.562  0.00  0.00     0.180 HD
ENDROOT
BRANCH   6  23
ATOM     23  C           0     133.217 135.298 136.824  0.00  0.00     0.208 C 
BRANCH  23  24
ATOM     24  O           0     132.906 134.411 137.931  0.00  0.00    -0.302 OA
BRANCH  24  25
ATOM     25  C           0     132.971 134.866 139.197  0.00  0.00     0.358 C 
ATOM     26  N           0     133.557 136.051 139.459  0.00  0.00    -0.346 N 
ATOM     27  H           0     133.934 136.576 138.735  0.00  0.00     0.161 HD
ATOM     28  H           0     133.604 136.378 140.371  0.00  0.00     0.161 HD
ATOM     29  O           0     132.500 134.208 140.103  0.00  0.00    -0.239 OA
ENDBRANCH  24  25
ENDBRANCH  23  24
ENDBRANCH   6  23
BRANCH  19  30
ATOM     30  O           0     134.534 136.737 132.509  0.00  0.00    -0.362 OA
ATOM     31  H           0     134.857 137.441 133.087  0.00  0.00     0.213 HD
ENDBRANCH  19  30
BRANCH  19  32
ATOM     32  O           0     135.036 135.699 134.560  0.00  0.00    -0.362 OA
ATOM     33  H           0     135.704 136.385 134.428  0.00  0.00     0.213 HD
ENDBRANCH  19  32
TORSDOF 5
ENDMDL
MODEL 2
REMARK VINA RESULT:      -7.0      8.532     13.194
REMARK  5 active torsions:
REMARK  status: ('A' for Active; 'I' for Inactive)
REMARK    1  A    between atoms: C_6  and  C_7 
REMARK    2  A    between atoms: C_7  and  O_8 
REMARK    3  A    between atoms: O_8  and  C_9 
REMARK       I    between atoms: C_9  and  N_10 
REMARK    4  A    between atoms: C_24  and  O_25 
REMARK    5  A    between atoms: C_24  and  O_26 
ROOT
ATOM      1  N           0     139.545 130.567 146.136  0.00  0.00    -0.235 N 
ATOM      2  H           0     140.280 130.691 145.515  0.00  0.00     0.174 HD
ATOM      3  H           0     139.587 129.862 146.801  0.00  0.00     0.174 HD
ATOM      4  C           0     138.505 131.350 146.082  0.00  0.00     0.672 C 
ATOM      5  N           0     138.403 132.374 145.156  0.00  0.00    -0.218 N 
ATOM      6  C           0     137.072 132.776 144.711  0.00  0.00     0.151 C 
ATOM      7  C           0     136.133 133.060 145.867  0.00  0.00     0.180 C 
ATOM      8  N           0     136.447 134.390 146.432  0.00  0.00    -0.216 N 
ATOM      9  C           0     136.344 134.295 147.799  0.00  0.00     0.670 C 
ATOM     10  N           0     136.196 135.317 148.594  0.00  0.00    -0.235 N 
ATOM     11  H           0     136.153 136.214 148.229  0.00  0.00     0.174 HD
ATOM     12  H           0     136.130 135.180 149.552  0.00  0.00     0.174 HD
ATOM     13  C           0     136.295 132.116 147.046  0.00  0.00     0.217 C 
ATOM     14  N           0     136.416 132.991 148.222  0.00  0.00    -0.191 N 
ATOM     15  N           0     137.439 131.211 146.937  0.00  0.00    -0.179 N 
ATOM     16  C           0     137.189 130.104 147.871  0.00  0.00     0.106 C 
ATOM     17  C           0     137.873 130.384 149.210  0.00  0.00     0.033 C 
ATOM     18  C           0     135.660 130.024 148.066  0.00  0.00     0.098 C 
ATOM     19  C           0     135.079 131.181 147.207  0.00  0.00     0.210 C 
ATOM     20  H           0     139.197 132.813 144.812  0.00  0.00     0.178 HD
ATOM     21  H           0     136.682 135.185 145.929  0.00  0.00     0.178 HD
ATOM     22  H           0     136.526 132.698 149.140  0.00  0.00     0.180 HD
ENDROOT
BRANCH   6  23
ATOM     23  C           0     136.477 131.655 143.856  0.00  0.00     0.208 C 
BRANCH  23  24
ATOM     24  O           0     135.204 132.087 143.308  0.00  0.00    -0.302 OA
BRANCH  24  25
ATOM     25  C           0     135.162 133.090 142.411  0.00  0.00     0.358 C 
ATOM     26  N           0     135.857 132.995 141.261  0.00  0.00    -0.346 N 
ATOM     27  H           0     136.390 132.205 141.080  0.00  0.00     0.161 HD
ATOM     28  H           0     135.827 133.719 140.615  0.00  0.00     0.161 HD
ATOM     29  O           0     134.495 134.080 142.639  0.00  0.00    -0.239 OA
ENDBRANCH  24  25
ENDBRANCH  23  24
ENDBRANCH   6  23
BRANCH  19  30
ATOM     30  O           0     134.012 131.837 147.895  0.00  0.00    -0.362 OA
ATOM     31  H           0     133.443 131.143 148.253  0.00  0.00     0.213 HD
ENDBRANCH  19  30
BRANCH  19  32
ATOM     32  O           0     134.643 130.699 145.934  0.00  0.00    -0.362 OA
ATOM     33  H           0     135.439 130.511 145.419  0.00  0.00     0.213 HD
ENDBRANCH  19  32
TORSDOF 5
ENDMDL
MODEL 3
REMARK VINA RESULT:      -7.0     12.304     14.244
REMARK  5 active torsions:
REMARK  status: ('A' for Active; 'I' for Inactive)
REMARK    1  A    between atoms: C_6  and  C_7 
REMARK    2  A    between atoms: C_7  and  O_8 
REMARK    3  A    between atoms: O_8  and  C_9 
REMARK       I    between atoms: C_9  and  N_10 
REMARK    4  A    between atoms: C_24  and  O_25 
REMARK    5  A    between atoms: C_24  and  O_26 
ROOT
ATOM      1  N           0     134.152 131.973 149.255  0.00  0.00    -0.235 N 
ATOM      2  H           0     133.715 131.646 150.057  0.00  0.00     0.174 HD
ATOM      3  H           0     133.996 132.881 148.953  0.00  0.00     0.174 HD
ATOM      4  C           0     134.955 131.194 148.586  0.00  0.00     0.672 C 
ATOM      5  N           0     135.216 129.893 148.980  0.00  0.00    -0.218 N 
ATOM      6  C           0     135.556 128.912 147.954  0.00  0.00     0.151 C 
ATOM      7  C           0     136.673 129.386 147.044  0.00  0.00     0.180 C 
ATOM      8  N           0     137.966 129.238 147.746  0.00  0.00    -0.216 N 
ATOM      9  C           0     138.731 130.339 147.444  0.00  0.00     0.670 C 
ATOM     10  N           0     140.026 130.390 147.579  0.00  0.00    -0.235 N 
ATOM     11  H           0     140.510 129.617 147.911  0.00  0.00     0.174 HD
ATOM     12  H           0     140.506 131.200 147.347  0.00  0.00     0.174 HD
ATOM     13  C           0     136.612 130.865 146.702  0.00  0.00     0.217 C 
ATOM     14  N           0     137.961 131.379 146.984  0.00  0.00    -0.191 N 
ATOM     15  N           0     135.594 131.610 147.444  0.00  0.00    -0.179 N 
ATOM     16  C           0     135.352 132.851 146.693  0.00  0.00     0.106 C 
ATOM     17  C           0     136.215 133.981 147.257  0.00  0.00     0.033 C 
ATOM     18  C           0     135.747 132.567 145.227  0.00  0.00     0.098 C 
ATOM     19  C           0     136.256 131.100 145.220  0.00  0.00     0.210 C 
ATOM     20  H           0     135.174 129.640 149.916  0.00  0.00     0.178 HD
ATOM     21  H           0     138.228 128.497 148.315  0.00  0.00     0.178 HD
ATOM     22  H           0     138.258 132.294 146.863  0.00  0.00     0.180 HD
ENDROOT
BRANCH   6  23
ATOM     23  C           0     134.314 128.634 147.105  0.00  0.00     0.208 C 
BRANCH  23  24
ATOM     24  O           0     133.254 128.117 147.953  0.00  0.00    -0.302 OA
BRANCH  24  25
ATOM     25  C           0     132.306 127.315 147.433  0.00  0.00     0.358 C 
ATOM     26  N           0     132.631 126.082 146.997  0.00  0.00    -0.346 N 
ATOM     27  H           0     133.548 125.773 147.056  0.00  0.00     0.161 HD
ATOM     28  H           0     131.947 125.505 146.622  0.00  0.00     0.161 HD
ATOM     29  O           0     131.157 127.703 147.357  0.00  0.00    -0.239 OA
ENDBRANCH  24  25
ENDBRANCH  23  24
ENDBRANCH   6  23
BRANCH  19  30
ATOM     30  O           0     137.410 130.968 144.386  0.00  0.00    -0.362 OA
ATOM     31  H           0     138.059 131.608 144.705  0.00  0.00     0.213 HD
ENDBRANCH  19  30
BRANCH  19  32
ATOM     32  O           0     135.223 130.206 144.803  0.00  0.00    -0.362 OA
ATOM     33  H           0     135.419 129.957 143.890  0.00  0.00     0.213 HD
ENDBRANCH  19  32
TORSDOF 5
ENDMDL
MODEL 4
REMARK VINA RESULT:      -6.9      8.204     12.275
REMARK  5 active torsions:
REMARK  status: ('A' for Active; 'I' for Inactive)
REMARK    1  A    between atoms: C_6  and  C_7 
REMARK    2  A    between atoms: C_7  and  O_8 
REMARK    3  A    between atoms: O_8  and  C_9 
REMARK       I    between atoms: C_9  and  N_10 
REMARK    4  A    between atoms: C_24  and  O_25 
REMARK    5  A    between atoms: C_24  and  O_26 
ROOT
ATOM      1  N           0     134.407 130.785 144.353  0.00  0.00    -0.235 N 
ATOM      2  H           0     134.089 130.622 143.451  0.00  0.00     0.174 HD
ATOM      3  H           0     134.011 130.311 145.100  0.00  0.00     0.174 HD
ATOM      4  C           0     135.372 131.636 144.560  0.00  0.00     0.672 C 
ATOM      5  N           0     135.974 132.332 143.526  0.00  0.00    -0.218 N 
ATOM      6  C           0     136.538 133.649 143.811  0.00  0.00     0.151 C 
ATOM      7  C           0     137.471 133.635 145.007  0.00  0.00     0.180 C 
ATOM      8  N           0     138.772 133.063 144.600  0.00  0.00    -0.216 N 
ATOM      9  C           0     139.213 132.263 145.626  0.00  0.00     0.670 C 
ATOM     10  N           0     140.453 131.891 145.783  0.00  0.00    -0.235 N 
ATOM     11  H           0     141.130 132.180 145.151  0.00  0.00     0.174 HD
ATOM     12  H           0     140.698 131.325 146.531  0.00  0.00     0.174 HD
ATOM     13  C           0     137.015 132.733 146.141  0.00  0.00     0.217 C 
ATOM     14  N           0     138.188 131.906 146.466  0.00  0.00    -0.191 N 
ATOM     15  N           0     135.854 131.903 145.818  0.00  0.00    -0.179 N 
ATOM     16  C           0     135.278 131.470 147.100  0.00  0.00     0.106 C 
ATOM     17  C           0     135.826 130.094 147.481  0.00  0.00     0.033 C 
ATOM     18  C           0     135.701 132.517 148.153  0.00  0.00     0.098 C 
ATOM     19  C           0     136.579 133.540 147.380  0.00  0.00     0.210 C 
ATOM     20  H           0     136.020 131.954 142.634  0.00  0.00     0.178 HD
ATOM     21  H           0     139.232 133.224 143.760  0.00  0.00     0.178 HD
ATOM     22  H           0     138.231 131.227 147.157  0.00  0.00     0.180 HD
ENDROOT
BRANCH   6  23
ATOM     23  C           0     135.394 134.626 144.090  0.00  0.00     0.208 C 
BRANCH  23  24
ATOM     24  O           0     134.384 134.497 143.055  0.00  0.00    -0.302 OA
BRANCH  24  25
ATOM     25  C           0     134.109 135.539 142.248  0.00  0.00     0.358 C 
ATOM     26  N           0     134.493 136.783 142.599  0.00  0.00    -0.346 N 
ATOM     27  H           0     134.965 136.927 143.434  0.00  0.00     0.161 HD
ATOM     28  H           0     134.294 137.533 142.017  0.00  0.00     0.161 HD
ATOM     29  O           0     133.517 135.358 141.202  0.00  0.00    -0.239 OA
ENDBRANCH  24  25
ENDBRANCH  23  24
ENDBRANCH   6  23
BRANCH  19  30
ATOM     30  O           0     137.708 133.933 148.163  0.00  0.00    -0.362 OA
ATOM     31  H           0     138.330 134.360 147.560  0.00  0.00     0.213 HD
ENDBRANCH  19  30
BRANCH  19  32
ATOM     32  O           0     135.807 134.679 146.992  0.00  0.00    -0.362 OA
ATOM     33  H           0     136.250 135.069 146.226  0.00  0.00     0.213 HD
ENDBRANCH  19  32
TORSDOF 5
ENDMDL
MODEL 5
REMARK VINA RESULT:      -6.8      9.769     13.640
REMARK  5 active torsions:
REMARK  status: ('A' for Active; 'I' for Inactive)
REMARK    1  A    between atoms: C_6  and  C_7 
REMARK    2  A    between atoms: C_7  and  O_8 
REMARK    3  A    between atoms: O_8  and  C_9 
REMARK       I    between atoms: C_9  and  N_10 
REMARK    4  A    between atoms: C_24  and  O_25 
REMARK    5  A    between atoms: C_24  and  O_26 
ROOT
ATOM      1  N           0     135.961 134.475 147.013  0.00  0.00    -0.235 N 
ATOM      2  H           0     135.409 135.113 146.534  0.00  0.00     0.174 HD
ATOM      3  H           0     136.556 134.780 147.715  0.00  0.00     0.174 HD
ATOM      4  C           0     135.897 133.207 146.718  0.00  0.00     0.672 C 
ATOM      5  N           0     135.059 132.723 145.729  0.00  0.00    -0.218 N 
ATOM      6  C           0     135.452 131.509 145.019  0.00  0.00     0.151 C 
ATOM      7  C           0     135.813 130.376 145.960  0.00  0.00     0.180 C 
ATOM      8  N           0     134.572 129.773 146.493  0.00  0.00    -0.216 N 
ATOM      9  C           0     134.785 129.487 147.820  0.00  0.00     0.670 C 
ATOM     10  N           0     134.072 128.643 148.511  0.00  0.00    -0.235 N 
ATOM     11  H           0     133.336 128.172 148.091  0.00  0.00     0.174 HD
ATOM     12  H           0     134.276 128.487 149.446  0.00  0.00     0.174 HD
ATOM     13  C           0     136.567 130.816 147.204  0.00  0.00     0.217 C 
ATOM     14  N           0     135.844 130.200 148.327  0.00  0.00    -0.191 N 
ATOM     15  N           0     136.662 132.267 147.365  0.00  0.00    -0.179 N 
ATOM     16  C           0     137.769 132.513 148.301  0.00  0.00     0.106 C 
ATOM     17  C           0     137.228 132.654 149.725  0.00  0.00     0.033 C 
ATOM     18  C           0     138.707 131.291 148.211  0.00  0.00     0.098 C 
ATOM     19  C           0     138.031 130.333 147.191  0.00  0.00     0.210 C 
ATOM     20  H           0     134.230 133.178 145.514  0.00  0.00     0.178 HD
ATOM     21  H           0     133.755 129.609 145.996  0.00  0.00     0.178 HD
ATOM     22  H           0     136.076 130.280 149.265  0.00  0.00     0.180 HD
ENDROOT
BRANCH   6  23
ATOM     23  C           0     136.662 131.822 144.138  0.00  0.00     0.208 C 
BRANCH  23  24
ATOM     24  O           0     136.278 132.767 143.105  0.00  0.00    -0.302 OA
BRANCH  24  25
ATOM     25  C           0     136.795 134.009 143.102  0.00  0.00     0.358 C 
ATOM     26  N           0     137.867 134.291 142.335  0.00  0.00    -0.346 N 
ATOM     27  H           0     138.267 133.598 141.787  0.00  0.00     0.161 HD
ATOM     28  H           0     138.240 135.187 142.334  0.00  0.00     0.161 HD
ATOM     29  O           0     136.295 134.877 143.790  0.00  0.00    -0.239 OA
ENDBRANCH  24  25
ENDBRANCH  23  24
ENDBRANCH   6  23
BRANCH  19  30
ATOM     30  O           0     138.131 128.976 147.626  0.00  0.00    -0.362 OA
ATOM     31  H           0     137.903 128.423 146.868  0.00  0.00     0.213 HD
ENDBRANCH  19  30
BRANCH  19  32
ATOM     32  O           0     138.602 130.493 145.890  0.00  0.00    -0.362 OA
ATOM     33  H           0     138.835 129.609 145.577  0.00  0.00     0.213 HD
ENDBRANCH  19  32
TORSDOF 5
ENDMDL
MODEL 6
REMARK VINA RESULT:      -6.7      1.566      1.874
REMARK  5 active torsions:
REMARK  status: ('A' for Active; 'I' for Inactive)
REMARK    1  A    between atoms: C_6  and  C_7 
REMARK    2  A    between atoms: C_7  and  O_8 
REMARK    3  A    between atoms: O_8  and  C_9 
REMARK       I    between atoms: C_9  and  N_10 
REMARK    4  A    between atoms: C_24  and  O_25 
REMARK    5  A    between atoms: C_24  and  O_26 
ROOT
ATOM      1  N           0     130.281 132.912 136.255  0.00  0.00    -0.235 N 
ATOM      2  H           0     129.697 133.298 136.927  0.00  0.00     0.174 HD
ATOM      3  H           0     130.202 131.972 136.027  0.00  0.00     0.174 HD
ATOM      4  C           0     131.166 133.656 135.655  0.00  0.00     0.672 C 
ATOM      5  N           0     131.311 135.002 135.942  0.00  0.00    -0.218 N 
ATOM      6  C           0     132.626 135.612 135.766  0.00  0.00     0.151 C 
ATOM      7  C           0     133.219 135.331 134.398  0.00  0.00     0.180 C 
ATOM      8  N           0     132.575 136.211 133.400  0.00  0.00    -0.216 N 
ATOM      9  C           0     132.377 135.471 132.260  0.00  0.00     0.670 C 
ATOM     10  N           0     132.173 135.985 131.079  0.00  0.00    -0.235 N 
ATOM     11  H           0     132.154 136.948 130.966  0.00  0.00     0.174 HD
ATOM     12  H           0     132.040 135.404 130.314  0.00  0.00     0.174 HD
ATOM     13  C           0     132.946 133.929 133.878  0.00  0.00     0.217 C 
ATOM     14  N           0     132.421 134.123 132.518  0.00  0.00    -0.191 N 
ATOM     15  N           0     132.017 133.155 134.701  0.00  0.00    -0.179 N 
ATOM     16  C           0     132.222 131.742 134.348  0.00  0.00     0.106 C 
ATOM     17  C           0     131.215 131.319 133.277  0.00  0.00     0.033 C 
ATOM     18  C           0     133.659 131.626 133.796  0.00  0.00     0.098 C 
ATOM     19  C           0     134.227 133.072 133.832  0.00  0.00     0.210 C 
ATOM     20  H           0     130.557 135.528 136.251  0.00  0.00     0.178 HD
ATOM     21  H           0     132.336 137.143 133.527  0.00  0.00     0.178 HD
ATOM     22  H           0     132.153 133.419 131.906  0.00  0.00     0.180 HD
ENDROOT
BRANCH   6  23
ATOM     23  C           0     133.572 135.062 136.835  0.00  0.00     0.208 C 
BRANCH  23  24
ATOM     24  O           0     132.803 134.645 137.994  0.00  0.00    -0.302 OA
BRANCH  24  25
ATOM     25  C           0     133.266 134.892 139.234  0.00  0.00     0.358 C 
ATOM     26  N           0     133.513 136.158 139.622  0.00  0.00    -0.346 N 
ATOM     27  H           0     133.359 136.893 139.007  0.00  0.00     0.161 HD
ATOM     28  H           0     133.847 136.335 140.516  0.00  0.00     0.161 HD
ATOM     29  O           0     133.460 133.972 140.004  0.00  0.00    -0.239 OA
ENDBRANCH  24  25
ENDBRANCH  23  24
ENDBRANCH   6  23
BRANCH  19  30
ATOM     30  O           0     134.989 133.347 132.655  0.00  0.00    -0.362 OA
ATOM     31  H           0     135.710 133.933 132.921  0.00  0.00     0.213 HD
ENDBRANCH  19  30
BRANCH  19  32
ATOM     32  O           0     135.013 133.279 135.007  0.00  0.00    -0.362 OA
ATOM     33  H           0     134.564 133.959 135.528  0.00  0.00     0.213 HD
ENDBRANCH  19  32
TORSDOF 5
ENDMDL
MODEL 7
REMARK VINA RESULT:      -6.6      4.372      6.331
REMARK  5 active torsions:
REMARK  status: ('A' for Active; 'I' for Inactive)
REMARK    1  A    between atoms: C_6  and  C_7 
REMARK    2  A    between atoms: C_7  and  O_8 
REMARK    3  A    between atoms: O_8  and  C_9 
REMARK       I    between atoms: C_9  and  N_10 
REMARK    4  A    between atoms: C_24  and  O_25 
REMARK    5  A    between atoms: C_24  and  O_26 
ROOT
ATOM      1  N           0     128.807 132.554 130.876  0.00  0.00    -0.235 N 
ATOM      2  H           0     127.903 132.289 130.643  0.00  0.00     0.174 HD
ATOM      3  H           0     129.271 133.217 130.341  0.00  0.00     0.174 HD
ATOM      4  C           0     129.394 132.025 131.912  0.00  0.00     0.672 C 
ATOM      5  N           0     128.771 131.082 132.710  0.00  0.00    -0.218 N 
ATOM      6  C           0     129.601 130.100 133.402  0.00  0.00     0.151 C 
ATOM      7  C           0     130.730 130.741 134.185  0.00  0.00     0.180 C 
ATOM      8  N           0     130.190 131.306 135.441  0.00  0.00    -0.216 N 
ATOM      9  C           0     130.816 132.509 135.658  0.00  0.00     0.670 C 
ATOM     10  N           0     130.868 133.109 136.814  0.00  0.00    -0.235 N 
ATOM     11  H           0     130.447 132.706 137.590  0.00  0.00     0.174 HD
ATOM     12  H           0     131.328 133.958 136.899  0.00  0.00     0.174 HD
ATOM     13  C           0     131.368 131.935 133.494  0.00  0.00     0.217 C 
ATOM     14  N           0     131.382 133.000 134.507  0.00  0.00    -0.191 N 
ATOM     15  N           0     130.673 132.366 132.280  0.00  0.00    -0.179 N 
ATOM     16  C           0     131.633 133.174 131.514  0.00  0.00     0.106 C 
ATOM     17  C           0     131.440 134.658 131.835  0.00  0.00     0.033 C 
ATOM     18  C           0     133.043 132.720 131.946  0.00  0.00     0.098 C 
ATOM     19  C           0     132.805 131.630 133.028  0.00  0.00     0.210 C 
ATOM     20  H           0     127.806 131.074 132.808  0.00  0.00     0.178 HD
ATOM     21  H           0     129.515 130.900 136.008  0.00  0.00     0.178 HD
ATOM     22  H           0     131.733 133.896 134.386  0.00  0.00     0.180 HD
ENDROOT
BRANCH   6  23
ATOM     23  C           0     130.199 129.144 132.368  0.00  0.00     0.208 C 
BRANCH  23  24
ATOM     24  O           0     130.004 127.773 132.806  0.00  0.00    -0.302 OA
BRANCH  24  25
ATOM     25  C           0     131.069 126.988 133.055  0.00  0.00     0.358 C 
ATOM     26  N           0     130.915 125.652 133.142  0.00  0.00    -0.346 N 
ATOM     27  H           0     130.036 125.256 133.027  0.00  0.00     0.161 HD
ATOM     28  H           0     131.682 125.086 133.322  0.00  0.00     0.161 HD
ATOM     29  O           0     132.169 127.483 133.201  0.00  0.00    -0.239 OA
ENDBRANCH  24  25
ENDBRANCH  23  24
ENDBRANCH   6  23
BRANCH  19  30
ATOM     30  O           0     133.737 131.771 134.102  0.00  0.00    -0.362 OA
ATOM     31  H           0     134.557 131.346 133.818  0.00  0.00     0.213 HD
ENDBRANCH  19  30
BRANCH  19  32
ATOM     32  O           0     132.882 130.323 132.456  0.00  0.00    -0.362 OA
ATOM     33  H           0     133.446 130.392 131.673  0.00  0.00     0.213 HD
ENDBRANCH  19  32
TORSDOF 5
ENDMDL
MODEL 8
REMARK VINA RESULT:      -6.6      9.645     13.661
REMARK  5 active torsions:
REMARK  status: ('A' for Active; 'I' for Inactive)
REMARK    1  A    between atoms: C_6  and  C_7 
REMARK    2  A    between atoms: C_7  and  O_8 
REMARK    3  A    between atoms: O_8  and  C_9 
REMARK       I    between atoms: C_9  and  N_10 
REMARK    4  A    between atoms: C_24  and  O_25 
REMARK    5  A    between atoms: C_24  and  O_26 
ROOT
ATOM      1  N           0     133.953 128.952 146.720  0.00  0.00    -0.235 N 
ATOM      2  H           0     133.502 128.502 145.989  0.00  0.00     0.174 HD
ATOM      3  H           0     133.673 128.792 147.635  0.00  0.00     0.174 HD
ATOM      4  C           0     134.940 129.767 146.474  0.00  0.00     0.672 C 
ATOM      5  N           0     135.381 130.022 145.187  0.00  0.00    -0.218 N 
ATOM      6  C           0     135.984 131.321 144.905  0.00  0.00     0.151 C 
ATOM      7  C           0     137.086 131.676 145.884  0.00  0.00     0.180 C 
ATOM      8  N           0     138.311 130.926 145.528  0.00  0.00    -0.216 N 
ATOM      9  C           0     138.900 130.514 146.699  0.00  0.00     0.670 C 
ATOM     10  N           0     140.148 130.152 146.802  0.00  0.00    -0.235 N 
ATOM     11  H           0     140.723 130.163 146.021  0.00  0.00     0.174 HD
ATOM     12  H           0     140.501 129.871 147.661  0.00  0.00     0.174 HD
ATOM     13  C           0     136.805 131.255 147.317  0.00  0.00     0.217 C 
ATOM     14  N           0     138.012 130.531 147.746  0.00  0.00    -0.191 N 
ATOM     15  N           0     135.607 130.431 147.475  0.00  0.00    -0.179 N 
ATOM     16  C           0     135.230 130.507 148.894  0.00  0.00     0.106 C 
ATOM     17  C           0     135.826 129.323 149.659  0.00  0.00     0.033 C 
ATOM     18  C           0     135.809 131.831 149.437  0.00  0.00     0.098 C 
ATOM     19  C           0     136.562 132.468 148.237  0.00  0.00     0.210 C 
ATOM     20  H           0     135.291 129.353 144.490  0.00  0.00     0.178 HD
ATOM     21  H           0     138.639 130.757 144.631  0.00  0.00     0.178 HD
ATOM     22  H           0     138.157 130.136 148.620  0.00  0.00     0.180 HD
ENDROOT
BRANCH   6  23
ATOM     23  C           0     134.898 132.396 144.976  0.00  0.00     0.208 C 
BRANCH  23  24
ATOM     24  O           0     135.502 133.707 144.816  0.00  0.00    -0.302 OA
BRANCH  24  25
ATOM     25  C           0     135.209 134.457 143.737  0.00  0.00     0.358 C 
ATOM     26  N           0     135.940 135.555 143.461  0.00  0.00    -0.346 N 
ATOM     27  H           0     136.676 135.806 144.041  0.00  0.00     0.161 HD
ATOM     28  H           0     135.728 136.095 142.684  0.00  0.00     0.161 HD
ATOM     29  O           0     134.286 134.143 143.012  0.00  0.00    -0.239 OA
ENDBRANCH  24  25
ENDBRANCH  23  24
ENDBRANCH   6  23
BRANCH  19  30
ATOM     30  O           0     137.797 133.048 148.663  0.00  0.00    -0.362 OA
ATOM     31  H           0     137.613 133.973 148.873  0.00  0.00     0.213 HD
ENDBRANCH  19  30
BRANCH  19  32
ATOM     32  O           0     135.744 133.440 147.582  0.00  0.00    -0.362 OA
ATOM     33  H           0     136.028 133.467 146.658  0.00  0.00     0.213 HD
ENDBRANCH  19  32
TORSDOF 5
ENDMDL
MODEL 9
REMARK VINA RESULT:      -6.6      2.647      4.782
REMARK  5 active torsions:
REMARK  status: ('A' for Active; 'I' for Inactive)
REMARK    1  A    between atoms: C_6  and  C_7 
REMARK    2  A    between atoms: C_7  and  O_8 
REMARK    3  A    between atoms: O_8  and  C_9 
REMARK       I    between atoms: C_9  and  N_10 
REMARK    4  A    between atoms: C_24  and  O_25 
REMARK    5  A    between atoms: C_24  and  O_26 
ROOT
ATOM      1  N           0     132.204 134.606 130.922  0.00  0.00    -0.235 N 
ATOM      2  H           0     132.584 135.387 130.490  0.00  0.00     0.174 HD
ATOM      3  H           0     131.318 134.298 130.674  0.00  0.00     0.174 HD
ATOM      4  C           0     132.886 133.966 131.829  0.00  0.00     0.672 C 
ATOM      5  N           0     134.156 134.362 132.211  0.00  0.00    -0.218 N 
ATOM      6  C           0     134.595 134.066 133.572  0.00  0.00     0.151 C 
ATOM      7  C           0     134.399 132.609 133.942  0.00  0.00     0.180 C 
ATOM      8  N           0     135.473 131.802 133.321  0.00  0.00    -0.216 N 
ATOM      9  C           0     134.907 130.632 132.874  0.00  0.00     0.670 C 
ATOM     10  N           0     135.581 129.549 132.607  0.00  0.00    -0.235 N 
ATOM     11  H           0     136.544 129.536 132.721  0.00  0.00     0.174 HD
ATOM     12  H           0     135.119 128.756 132.295  0.00  0.00     0.174 HD
ATOM     13  C           0     133.121 131.994 133.398  0.00  0.00     0.217 C 
ATOM     14  N           0     133.545 130.747 132.744  0.00  0.00    -0.191 N 
ATOM     15  N           0     132.389 132.857 132.470  0.00  0.00    -0.179 N 
ATOM     16  C           0     131.014 132.340 132.413  0.00  0.00     0.106 C 
ATOM     17  C           0     130.863 131.383 131.229  0.00  0.00     0.033 C 
ATOM     18  C           0     130.768 131.585 133.737  0.00  0.00     0.098 C 
ATOM     19  C           0     132.107 131.685 134.518  0.00  0.00     0.210 C 
ATOM     20  H           0     134.739 134.824 131.589  0.00  0.00     0.178 HD
ATOM     21  H           0     136.407 132.053 133.244  0.00  0.00     0.178 HD
ATOM     22  H           0     132.962 130.111 132.300  0.00  0.00     0.180 HD
ENDROOT
BRANCH   6  23
ATOM     23  C           0     133.798 134.934 134.548  0.00  0.00     0.208 C 
BRANCH  23  24
ATOM     24  O           0     134.128 134.558 135.911  0.00  0.00    -0.302 OA
BRANCH  24  25
ATOM     25  C           0     134.816 135.407 136.696  0.00  0.00     0.358 C 
ATOM     26  N           0     134.495 135.531 137.999  0.00  0.00    -0.346 N 
ATOM     27  H           0     133.766 135.010 138.370  0.00  0.00     0.161 HD
ATOM     28  H           0     134.992 136.144 138.564  0.00  0.00     0.161 HD
ATOM     29  O           0     135.729 136.060 136.230  0.00  0.00    -0.239 OA
ENDBRANCH  24  25
ENDBRANCH  23  24
ENDBRANCH   6  23
BRANCH  19  30
ATOM     30  O           0     132.413 130.447 135.163  0.00  0.00    -0.362 OA
ATOM     31  H           0     132.274 129.750 134.508  0.00  0.00     0.213 HD
ENDBRANCH  19  30
BRANCH  19  32
ATOM     32  O           0     132.063 132.755 135.465  0.00  0.00    -0.362 OA
ATOM     33  H           0     131.358 133.352 135.180  0.00  0.00     0.213 HD
ENDBRANCH  19  32
TORSDOF 5
ENDMDL
