# created with PyMOL 2.3.4
@<TRIPOS>MOLECULE
ligand_out_0001
48 51 1                 
SMALL
USER_CHARGES
@<TRIPOS>ATOM
1	   N	137.711	134.978	142.906	N.3	1	UNK0	-0.235	
2	   N	135.442	135.476	143.278	N.3	1	UNK0	-0.218	
3	   N	133.569	134.466	145.507	N.3	1	UNK0	-0.216	
4	   N	133.872	133.768	147.746	N.3	1	UNK0	-0.235	
5	   N	135.176	132.925	145.962	N.3	1	UNK0	-0.191	
6	   N	136.290	133.384	143.864	N.3	1	UNK0	-0.183	
7	   N	133.740	135.628	138.554	N.pl3	1	UNK0	-0.337	
8	   N	131.169	131.096	134.413	N.pl3	1	UNK0	-0.357	
9	   C	136.532	134.625	143.334	C.3	1	UNK0	0.672	
10	   C	134.110	134.888	143.164	C.3	1	UNK0	0.151	
11	   C	133.851	133.818	144.207	C.3	1	UNK0	0.180	
12	   C	134.187	133.723	146.482	C.3	1	UNK0	0.670	
13	   C	135.049	132.928	144.495	C.3	1	UNK0	0.217	
14	   C	137.183	132.212	143.870	C.3	1	UNK0	0.150	
15	   C	136.250	131.015	143.568	C.3	1	UNK0	0.093	
16	   C	134.836	131.494	143.986	C.3	1	UNK0	0.209	
17	   C	133.963	134.265	141.774	C.2	1	UNK0	0.208	
18	   C	133.199	134.926	139.570	C.2	1	UNK0	0.360	
19	   C	133.442	135.257	137.168	C.3	1	UNK0	0.125	
20	   C	134.732	135.283	136.345	C.3	1	UNK0	0.020	
21	   C	134.477	134.641	134.980	C.3	1	UNK0	0.002	
22	   C	132.976	134.405	134.800	C.3	1	UNK0	0.002	
23	   C	132.739	132.969	134.325	C.3	1	UNK0	0.020	
24	   C	131.367	132.493	134.807	C.3	1	UNK0	0.123	
25	   C	130.425	130.801	133.328	C.2	1	UNK0	0.251	
26	   C	130.224	129.393	132.931	C.3	1	UNK0	0.032	
27	   C	131.320	128.537	132.807	C.3	1	UNK0	0.020	
28	   C	131.127	127.222	132.441	C.3	1	UNK0	0.043	
29	   C	129.847	126.752	132.185	C.3	1	UNK0	0.116	
30	   C	128.756	127.600	132.300	C.3	1	UNK0	0.043	
31	   C	128.938	128.915	132.671	C.3	1	UNK0	0.020	
32	   O	133.473	135.267	140.843	O.2	1	UNK0	-0.302	
33	   O	132.464	133.988	139.337	O.co2	1	UNK0	-0.239	
34	   O	129.919	131.695	132.677	O.2	1	UNK0	-0.268	
35	   O	134.317	130.662	145.027	O.2	1	UNK0	-0.362	
36	   O	133.956	131.492	142.860	O.2	1	UNK0	-0.362	
37	   F	129.663	125.464	131.821	 F	1	UNK0	-0.206	
38	   H	137.846	135.864	142.534	 H	1	UNK0	0.174	
39	   H	138.454	134.357	142.964	 H	1	UNK0	0.174	
40	   H	133.161	134.354	148.048	 H	1	UNK0	0.174	
41	   H	134.349	133.215	148.385	 H	1	UNK0	0.174	
42	   H	135.559	136.438	143.314	 H	1	UNK0	0.178	
43	   H	133.043	135.269	145.644	 H	1	UNK0	0.178	
44	   H	135.843	132.441	146.474	 H	1	UNK0	0.180	
45	   H	134.326	136.377	138.741	 H	1	UNK0	0.164	
46	   H	131.572	130.383	134.933	 H	1	UNK0	0.162	
47	   H	134.239	129.771	144.659	 H	1	UNK0	0.213	
48	   H	133.489	130.644	142.872	 H	1	UNK0	0.213	
@<TRIPOS>BOND
1 1 9 1
2 1 38 1
3 1 39 1
4 2 10 1
5 2 42 1
6 3 12 1
7 3 43 1
8 4 40 1
9 4 41 1
10 5 44 1
11 6 14 1
12 7 19 1
13 7 45 1
14 8 25 1
15 8 46 1
16 2 9 1
17 6 9 1
18 10 11 1
19 10 17 1
20 3 11 1
21 11 13 1
22 4 12 1
23 5 12 1
24 5 13 1
25 6 13 1
26 13 16 1
27 14 15 1
28 15 16 1
29 16 35 2
30 16 36 2
31 17 32 2
32 7 18 1
33 18 33 2
34 19 20 1
35 20 21 1
36 21 22 1
37 22 23 1
38 23 24 1
39 8 24 1
40 25 26 1
41 25 34 2
42 26 27 1
43 26 31 1
44 27 28 1
45 28 29 1
46 29 30 1
47 29 37 1
48 30 31 1
49 18 32 2
50 35 47 1
51 36 48 1
@<TRIPOS>SUBSTRUCTURE
1	UNK0	1	GROUP	1 ****	UNK
