MODEL 1
REMARK VINA RESULT:      -7.9      0.000      0.000
REMARK  5 active torsions:
REMARK  status: ('A' for Active; 'I' for Inactive)
REMARK    1  A    between atoms: C_6  and  C_7 
REMARK    2  A    between atoms: C_7  and  O_8 
REMARK    3  A    between atoms: O_8  and  C_9 
REMARK    4  A    between atoms: C_23  and  O_24 
REMARK    5  A    between atoms: C_23  and  O_25 
ROOT
ATOM      1  N           0     135.584 132.659 147.124  0.00  0.00    -0.235 N 
ATOM      2  H           0     135.876 132.921 148.011  0.00  0.00     0.174 HD
ATOM      3  H           0     134.988 131.901 147.014  0.00  0.00     0.174 HD
ATOM      4  C           0     135.987 133.329 146.081  0.00  0.00     0.672 C 
ATOM      5  N           0     136.831 134.421 146.187  0.00  0.00    -0.218 N 
ATOM      6  C           0     137.714 134.723 145.065  0.00  0.00     0.151 C 
ATOM      7  C           0     136.976 134.793 143.741  0.00  0.00     0.180 C 
ATOM      8  N           0     136.253 136.079 143.656  0.00  0.00    -0.216 N 
ATOM      9  C           0     135.034 135.832 143.073  0.00  0.00     0.670 C 
ATOM     10  N           0     134.290 136.745 142.514  0.00  0.00    -0.235 N 
ATOM     11  H           0     134.590 137.668 142.492  0.00  0.00     0.174 HD
ATOM     12  H           0     133.439 136.503 142.119  0.00  0.00     0.174 HD
ATOM     13  C           0     135.882 133.748 143.584  0.00  0.00     0.217 C 
ATOM     14  N           0     134.695 134.504 143.152  0.00  0.00    -0.191 N 
ATOM     15  N           0     135.605 132.994 144.808  0.00  0.00    -0.183 N 
ATOM     16  C           0     134.891 131.783 144.365  0.00  0.00     0.150 C 
ATOM     17  C           0     135.589 131.387 143.043  0.00  0.00     0.093 C 
ATOM     18  C           0     136.244 132.692 142.526  0.00  0.00     0.209 C 
ATOM     19  H           0     136.834 134.971 146.986  0.00  0.00     0.178 HD
ATOM     20  H           0     136.580 136.942 143.957  0.00  0.00     0.178 HD
ATOM     21  H           0     133.824 134.128 142.953  0.00  0.00     0.180 HD
ENDROOT
BRANCH   6  22
ATOM     22  C           0     138.786 133.636 144.973  0.00  0.00     0.206 C 
BRANCH  22  23
ATOM     23  O           0     139.805 133.875 145.980  0.00  0.00    -0.320 OA
BRANCH  23  24
ATOM     24  C           0     139.730 133.259 147.170  0.00  0.00     0.254 C 
ATOM     25  C           0     140.580 133.735 148.320  0.00  0.00     0.126 C 
ATOM     26  O           0     138.981 132.323 147.320  0.00  0.00    -0.266 OA
ENDBRANCH  23  24
ENDBRANCH  22  23
ENDBRANCH   6  22
BRANCH  18  27
ATOM     27  O           0     135.704 133.050 141.253  0.00  0.00    -0.362 OA
ATOM     28  H           0     136.432 133.417 140.733  0.00  0.00     0.213 HD
ENDBRANCH  18  27
BRANCH  18  29
ATOM     29  O           0     137.662 132.539 142.442  0.00  0.00    -0.362 OA
ATOM     30  H           0     137.871 131.668 142.808  0.00  0.00     0.213 HD
ENDBRANCH  18  29
TORSDOF 5
ENDMDL
MODEL 2
REMARK VINA RESULT:      -7.6      2.125      5.763
REMARK  5 active torsions:
REMARK  status: ('A' for Active; 'I' for Inactive)
REMARK    1  A    between atoms: C_6  and  C_7 
REMARK    2  A    between atoms: C_7  and  O_8 
REMARK    3  A    between atoms: O_8  and  C_9 
REMARK    4  A    between atoms: C_23  and  O_24 
REMARK    5  A    between atoms: C_23  and  O_25 
ROOT
ATOM      1  N           0     135.107 136.765 143.212  0.00  0.00    -0.235 N 
ATOM      2  H           0     134.322 137.255 142.918  0.00  0.00     0.174 HD
ATOM      3  H           0     135.922 137.242 143.431  0.00  0.00     0.174 HD
ATOM      4  C           0     135.062 135.467 143.318  0.00  0.00     0.672 C 
ATOM      5  N           0     133.920 134.742 143.024  0.00  0.00    -0.218 N 
ATOM      6  C           0     134.074 133.367 142.558  0.00  0.00     0.151 C 
ATOM      7  C           0     134.967 132.540 143.463  0.00  0.00     0.180 C 
ATOM      8  N           0     134.211 132.157 144.674  0.00  0.00    -0.216 N 
ATOM      9  C           0     135.066 132.253 145.745  0.00  0.00     0.670 C 
ATOM     10  N           0     134.873 131.664 146.892  0.00  0.00    -0.235 N 
ATOM     11  H           0     134.084 131.116 147.029  0.00  0.00     0.174 HD
ATOM     12  H           0     135.517 131.772 147.607  0.00  0.00     0.174 HD
ATOM     13  C           0     136.170 133.295 144.008  0.00  0.00     0.217 C 
ATOM     14  N           0     136.150 133.045 145.459  0.00  0.00    -0.191 N 
ATOM     15  N           0     136.145 134.731 143.724  0.00  0.00    -0.183 N 
ATOM     16  C           0     137.533 135.189 143.908  0.00  0.00     0.150 C 
ATOM     17  C           0     138.396 134.038 143.338  0.00  0.00     0.093 C 
ATOM     18  C           0     137.490 132.783 143.408  0.00  0.00     0.209 C 
ATOM     19  H           0     133.040 135.138 143.125  0.00  0.00     0.178 HD
ATOM     20  H           0     133.279 131.887 144.707  0.00  0.00     0.178 HD
ATOM     21  H           0     136.793 133.381 146.102  0.00  0.00     0.180 HD
ENDROOT
BRANCH   6  22
ATOM     22  C           0     134.679 133.386 141.154  0.00  0.00     0.206 C 
BRANCH  22  23
ATOM     23  O           0     133.628 133.599 140.176  0.00  0.00    -0.320 OA
BRANCH  23  24
ATOM     24  C           0     133.462 134.810 139.621  0.00  0.00     0.254 C 
ATOM     25  C           0     133.689 134.999 138.143  0.00  0.00     0.126 C 
ATOM     26  O           0     133.133 135.749 140.306  0.00  0.00    -0.266 OA
ENDBRANCH  23  24
ENDBRANCH  22  23
ENDBRANCH   6  22
BRANCH  18  27
ATOM     27  O           0     138.076 131.792 144.253  0.00  0.00    -0.362 OA
ATOM     28  H           0     138.997 132.050 144.390  0.00  0.00     0.213 HD
ENDBRANCH  18  27
BRANCH  18  29
ATOM     29  O           0     137.268 132.255 142.098  0.00  0.00    -0.362 OA
ATOM     30  H           0     138.076 131.788 141.845  0.00  0.00     0.213 HD
ENDBRANCH  18  29
TORSDOF 5
ENDMDL
MODEL 3
REMARK VINA RESULT:      -7.2      1.744      2.147
REMARK  5 active torsions:
REMARK  status: ('A' for Active; 'I' for Inactive)
REMARK    1  A    between atoms: C_6  and  C_7 
REMARK    2  A    between atoms: C_7  and  O_8 
REMARK    3  A    between atoms: O_8  and  C_9 
REMARK    4  A    between atoms: C_23  and  O_24 
REMARK    5  A    between atoms: C_23  and  O_25 
ROOT
ATOM      1  N           0     136.242 134.630 146.691  0.00  0.00    -0.235 N 
ATOM      2  H           0     136.721 135.443 146.914  0.00  0.00     0.174 HD
ATOM      3  H           0     135.809 134.116 147.390  0.00  0.00     0.174 HD
ATOM      4  C           0     136.176 134.231 145.452  0.00  0.00     0.672 C 
ATOM      5  N           0     136.772 134.934 144.419  0.00  0.00    -0.218 N 
ATOM      6  C           0     137.206 134.192 143.239  0.00  0.00     0.151 C 
ATOM      7  C           0     136.115 133.305 142.670  0.00  0.00     0.180 C 
ATOM      8  N           0     135.151 134.140 141.922  0.00  0.00    -0.216 N 
ATOM      9  C           0     133.892 133.657 142.184  0.00  0.00     0.670 C 
ATOM     10  N           0     132.847 133.894 141.441  0.00  0.00    -0.235 N 
ATOM     11  H           0     132.932 134.443 140.646  0.00  0.00     0.174 HD
ATOM     12  H           0     131.986 133.521 141.683  0.00  0.00     0.174 HD
ATOM     13  C           0     135.260 132.619 143.725  0.00  0.00     0.217 C 
ATOM     14  N           0     133.870 132.893 143.325  0.00  0.00    -0.191 N 
ATOM     15  N           0     135.515 133.087 145.088  0.00  0.00    -0.183 N 
ATOM     16  C           0     134.965 132.040 145.968  0.00  0.00     0.150 C 
ATOM     17  C           0     135.311 130.714 145.250  0.00  0.00     0.093 C 
ATOM     18  C           0     135.504 131.100 143.762  0.00  0.00     0.209 C 
ATOM     19  H           0     136.897 135.894 144.478  0.00  0.00     0.178 HD
ATOM     20  H           0     135.368 134.893 141.349  0.00  0.00     0.178 HD
ATOM     21  H           0     133.075 132.585 143.786  0.00  0.00     0.180 HD
ENDROOT
BRANCH   6  22
ATOM     22  C           0     138.403 133.318 143.617  0.00  0.00     0.206 C 
BRANCH  22  23
ATOM     23  O           0     139.120 133.931 144.721  0.00  0.00    -0.320 OA
BRANCH  23  24
ATOM     24  C           0     139.959 133.195 145.467  0.00  0.00     0.254 C 
ATOM     25  C           0     139.646 132.935 146.918  0.00  0.00     0.126 C 
ATOM     26  O           0     140.966 132.743 144.976  0.00  0.00    -0.266 OA
ENDBRANCH  23  24
ENDBRANCH  22  23
ENDBRANCH   6  22
BRANCH  18  27
ATOM     27  O           0     134.553 130.418 142.943  0.00  0.00    -0.362 OA
ATOM     28  H           0     134.417 130.965 142.157  0.00  0.00     0.213 HD
ENDBRANCH  18  27
BRANCH  18  29
ATOM     29  O           0     136.835 130.801 143.338  0.00  0.00    -0.362 OA
ATOM     30  H           0     137.188 130.154 143.964  0.00  0.00     0.213 HD
ENDBRANCH  18  29
TORSDOF 5
ENDMDL
MODEL 4
REMARK VINA RESULT:      -6.9      2.587      3.313
REMARK  5 active torsions:
REMARK  status: ('A' for Active; 'I' for Inactive)
REMARK    1  A    between atoms: C_6  and  C_7 
REMARK    2  A    between atoms: C_7  and  O_8 
REMARK    3  A    between atoms: O_8  and  C_9 
REMARK    4  A    between atoms: C_23  and  O_24 
REMARK    5  A    between atoms: C_23  and  O_25 
ROOT
ATOM      1  N           0     136.063 134.773 147.699  0.00  0.00    -0.235 N 
ATOM      2  H           0     136.465 135.654 147.646  0.00  0.00     0.174 HD
ATOM      3  H           0     135.501 134.541 148.454  0.00  0.00     0.174 HD
ATOM      4  C           0     136.275 133.903 146.751  0.00  0.00     0.672 C 
ATOM      5  N           0     137.064 134.189 145.651  0.00  0.00    -0.218 N 
ATOM      6  C           0     137.759 133.086 144.994  0.00  0.00     0.151 C 
ATOM      7  C           0     136.836 131.931 144.655  0.00  0.00     0.180 C 
ATOM      8  N           0     136.039 132.280 143.460  0.00  0.00    -0.216 N 
ATOM      9  C           0     134.764 131.809 143.660  0.00  0.00     0.670 C 
ATOM     10  N           0     133.899 131.610 142.705  0.00  0.00    -0.235 N 
ATOM     11  H           0     134.141 131.796 141.784  0.00  0.00     0.174 HD
ATOM     12  H           0     133.014 131.274 142.915  0.00  0.00     0.174 HD
ATOM     13  C           0     135.789 131.640 145.719  0.00  0.00     0.217 C 
ATOM     14  N           0     134.513 131.575 144.989  0.00  0.00    -0.191 N 
ATOM     15  N           0     135.733 132.644 146.783  0.00  0.00    -0.183 N 
ATOM     16  C           0     135.030 131.989 147.900  0.00  0.00     0.150 C 
ATOM     17  C           0     135.551 130.533 147.881  0.00  0.00     0.093 C 
ATOM     18  C           0     136.052 130.303 146.433  0.00  0.00     0.209 C 
ATOM     19  H           0     137.152 135.099 145.325  0.00  0.00     0.178 HD
ATOM     20  H           0     136.358 132.756 142.677  0.00  0.00     0.178 HD
ATOM     21  H           0     133.644 131.394 145.379  0.00  0.00     0.180 HD
ENDROOT
BRANCH   6  22
ATOM     22  C           0     138.865 132.577 145.920  0.00  0.00     0.206 C 
BRANCH  22  23
ATOM     23  O           0     139.741 133.678 146.279  0.00  0.00    -0.320 OA
BRANCH  23  24
ATOM     24  C           0     140.029 133.913 147.569  0.00  0.00     0.254 C 
ATOM     25  C           0     139.592 132.936 148.629  0.00  0.00     0.126 C 
ATOM     26  O           0     140.638 134.910 147.879  0.00  0.00    -0.266 OA
ENDBRANCH  23  24
ENDBRANCH  22  23
ENDBRANCH   6  22
BRANCH  18  27
ATOM     27  O           0     135.317 129.248 145.812  0.00  0.00    -0.362 OA
ATOM     28  H           0     135.625 128.421 146.207  0.00  0.00     0.213 HD
ENDBRANCH  18  27
BRANCH  18  29
ATOM     29  O           0     137.450 130.006 146.431  0.00  0.00    -0.362 OA
ATOM     30  H           0     137.532 129.048 146.325  0.00  0.00     0.213 HD
ENDBRANCH  18  29
TORSDOF 5
ENDMDL
MODEL 5
REMARK VINA RESULT:      -6.8      1.920      4.774
REMARK  5 active torsions:
REMARK  status: ('A' for Active; 'I' for Inactive)
REMARK    1  A    between atoms: C_6  and  C_7 
REMARK    2  A    between atoms: C_7  and  O_8 
REMARK    3  A    between atoms: O_8  and  C_9 
REMARK    4  A    between atoms: C_23  and  O_24 
REMARK    5  A    between atoms: C_23  and  O_25 
ROOT
ATOM      1  N           0     135.446 135.476 143.091  0.00  0.00    -0.235 N 
ATOM      2  H           0     134.516 135.740 143.175  0.00  0.00     0.174 HD
ATOM      3  H           0     135.908 135.590 142.246  0.00  0.00     0.174 HD
ATOM      4  C           0     136.075 134.974 144.116  0.00  0.00     0.672 C 
ATOM      5  N           0     135.461 134.799 145.344  0.00  0.00    -0.218 N 
ATOM      6  C           0     135.942 133.727 146.211  0.00  0.00     0.151 C 
ATOM      7  C           0     137.446 133.765 146.409  0.00  0.00     0.180 C 
ATOM      8  N           0     137.783 134.837 147.370  0.00  0.00    -0.216 N 
ATOM      9  C           0     138.926 135.452 146.921  0.00  0.00     0.670 C 
ATOM     10  N           0     139.709 136.178 147.669  0.00  0.00    -0.235 N 
ATOM     11  H           0     139.497 136.311 148.607  0.00  0.00     0.174 HD
ATOM     12  H           0     140.503 136.584 147.289  0.00  0.00     0.174 HD
ATOM     13  C           0     138.228 134.138 145.158  0.00  0.00     0.217 C 
ATOM     14  N           0     139.143 135.208 145.588  0.00  0.00    -0.191 N 
ATOM     15  N           0     137.387 134.582 144.046  0.00  0.00    -0.183 N 
ATOM     16  C           0     138.232 134.458 142.845  0.00  0.00     0.150 C 
ATOM     17  C           0     139.037 133.157 143.075  0.00  0.00     0.093 C 
ATOM     18  C           0     139.035 132.948 144.610  0.00  0.00     0.209 C 
ATOM     19  H           0     134.731 135.374 145.622  0.00  0.00     0.178 HD
ATOM     20  H           0     137.286 135.065 148.172  0.00  0.00     0.178 HD
ATOM     21  H           0     139.790 135.660 145.025  0.00  0.00     0.180 HD
ENDROOT
BRANCH   6  22
ATOM     22  C           0     135.561 132.382 145.591  0.00  0.00     0.206 C 
BRANCH  22  23
ATOM     23  O           0     134.708 132.604 144.438  0.00  0.00    -0.320 OA
BRANCH  23  24
ATOM     24  C           0     134.938 131.942 143.294  0.00  0.00     0.254 C 
ATOM     25  C           0     133.937 132.008 142.170  0.00  0.00     0.126 C 
ATOM     26  O           0     135.948 131.291 143.166  0.00  0.00    -0.266 OA
ENDBRANCH  23  24
ENDBRANCH  22  23
ENDBRANCH   6  22
BRANCH  18  27
ATOM     27  O           0     140.369 132.969 145.118  0.00  0.00    -0.362 OA
ATOM     28  H           0     140.699 132.061 145.075  0.00  0.00     0.213 HD
ENDBRANCH  18  27
BRANCH  18  29
ATOM     29  O           0     138.392 131.716 144.944  0.00  0.00    -0.362 OA
ATOM     30  H           0     137.578 131.945 145.413  0.00  0.00     0.213 HD
ENDBRANCH  18  29
TORSDOF 5
ENDMDL
MODEL 6
REMARK VINA RESULT:      -6.8      3.149      4.549
REMARK  5 active torsions:
REMARK  status: ('A' for Active; 'I' for Inactive)
REMARK    1  A    between atoms: C_6  and  C_7 
REMARK    2  A    between atoms: C_7  and  O_8 
REMARK    3  A    between atoms: O_8  and  C_9 
REMARK    4  A    between atoms: C_23  and  O_24 
REMARK    5  A    between atoms: C_23  and  O_25 
ROOT
ATOM      1  N           0     139.086 130.464 145.901  0.00  0.00    -0.235 N 
ATOM      2  H           0     139.254 129.614 146.336  0.00  0.00     0.174 HD
ATOM      3  H           0     139.823 130.966 145.518  0.00  0.00     0.174 HD
ATOM      4  C           0     137.871 130.929 145.824  0.00  0.00     0.672 C 
ATOM      5  N           0     136.787 130.247 146.349  0.00  0.00    -0.218 N 
ATOM      6  C           0     135.633 131.022 146.794  0.00  0.00     0.151 C 
ATOM      7  C           0     135.143 131.999 145.743  0.00  0.00     0.180 C 
ATOM      8  N           0     134.383 131.262 144.711  0.00  0.00    -0.216 N 
ATOM      9  C           0     134.707 131.804 143.491  0.00  0.00     0.670 C 
ATOM     10  N           0     133.986 131.667 142.414  0.00  0.00    -0.235 N 
ATOM     11  H           0     133.161 131.155 142.444  0.00  0.00     0.174 HD
ATOM     12  H           0     134.272 132.076 141.583  0.00  0.00     0.174 HD
ATOM     13  C           0     136.255 132.679 144.960  0.00  0.00     0.217 C 
ATOM     14  N           0     135.884 132.507 143.546  0.00  0.00    -0.191 N 
ATOM     15  N           0     137.585 132.127 145.223  0.00  0.00    -0.183 N 
ATOM     16  C           0     138.533 133.157 144.761  0.00  0.00     0.150 C 
ATOM     17  C           0     137.872 134.496 145.166  0.00  0.00     0.093 C 
ATOM     18  C           0     136.361 134.177 145.295  0.00  0.00     0.209 C 
ATOM     19  H           0     136.794 129.279 146.418  0.00  0.00     0.178 HD
ATOM     20  H           0     133.767 130.528 144.867  0.00  0.00     0.178 HD
ATOM     21  H           0     136.384 132.838 142.783  0.00  0.00     0.180 HD
ENDROOT
BRANCH   6  22
ATOM     22  C           0     136.018 131.804 148.051  0.00  0.00     0.206 C 
BRANCH  22  23
ATOM     23  O           0     134.829 132.396 148.636  0.00  0.00    -0.320 OA
BRANCH  23  24
ATOM     24  C           0     134.004 131.648 149.384  0.00  0.00     0.254 C 
ATOM     25  C           0     134.566 130.593 150.302  0.00  0.00     0.126 C 
ATOM     26  O           0     132.809 131.819 149.321  0.00  0.00    -0.266 OA
ENDBRANCH  23  24
ENDBRANCH  22  23
ENDBRANCH   6  22
BRANCH  18  27
ATOM     27  O           0     135.606 134.955 144.365  0.00  0.00    -0.362 OA
ATOM     28  H           0     135.853 135.878 144.507  0.00  0.00     0.213 HD
ENDBRANCH  18  27
BRANCH  18  29
ATOM     29  O           0     135.912 134.419 146.630  0.00  0.00    -0.362 OA
ATOM     30  H           0     136.695 134.652 147.149  0.00  0.00     0.213 HD
ENDBRANCH  18  29
TORSDOF 5
ENDMDL
MODEL 7
REMARK VINA RESULT:      -6.7      2.397      5.379
REMARK  5 active torsions:
REMARK  status: ('A' for Active; 'I' for Inactive)
REMARK    1  A    between atoms: C_6  and  C_7 
REMARK    2  A    between atoms: C_7  and  O_8 
REMARK    3  A    between atoms: O_8  and  C_9 
REMARK    4  A    between atoms: C_23  and  O_24 
REMARK    5  A    between atoms: C_23  and  O_25 
ROOT
ATOM      1  N           0     135.171 130.500 143.271  0.00  0.00    -0.235 N 
ATOM      2  H           0     134.930 130.352 142.343  0.00  0.00     0.174 HD
ATOM      3  H           0     134.866 129.884 143.955  0.00  0.00     0.174 HD
ATOM      4  C           0     135.909 131.524 143.597  0.00  0.00     0.672 C 
ATOM      5  N           0     136.373 132.427 142.657  0.00  0.00    -0.218 N 
ATOM      6  C           0     136.621 133.801 143.082  0.00  0.00     0.151 C 
ATOM      7  C           0     137.493 133.882 144.320  0.00  0.00     0.180 C 
ATOM      8  N           0     138.900 133.633 143.942  0.00  0.00    -0.216 N 
ATOM      9  C           0     139.465 132.863 144.929  0.00  0.00     0.670 C 
ATOM     10  N           0     140.750 132.750 145.124  0.00  0.00    -0.235 N 
ATOM     11  H           0     141.371 133.228 144.553  0.00  0.00     0.174 HD
ATOM     12  H           0     141.083 132.190 145.841  0.00  0.00     0.174 HD
ATOM     13  C           0     137.200 132.809 145.358  0.00  0.00     0.217 C 
ATOM     14  N           0     138.512 132.228 145.684  0.00  0.00    -0.191 N 
ATOM     15  N           0     136.270 131.778 144.895  0.00  0.00    -0.183 N 
ATOM     16  C           0     135.772 131.125 146.118  0.00  0.00     0.150 C 
ATOM     17  C           0     135.608 132.282 147.131  0.00  0.00     0.093 C 
ATOM     18  C           0     136.558 133.397 146.627  0.00  0.00     0.209 C 
ATOM     19  H           0     136.530 132.153 141.739  0.00  0.00     0.178 HD
ATOM     20  H           0     139.344 133.955 143.141  0.00  0.00     0.178 HD
ATOM     21  H           0     138.675 131.519 146.326  0.00  0.00     0.180 HD
ENDROOT
BRANCH   6  22
ATOM     22  C           0     135.282 134.476 143.378  0.00  0.00     0.206 C 
BRANCH  22  23
ATOM     23  O           0     134.628 134.824 142.130  0.00  0.00    -0.320 OA
BRANCH  23  24
ATOM     24  C           0     133.714 133.998 141.597  0.00  0.00     0.254 C 
ATOM     25  C           0     133.188 134.250 140.208  0.00  0.00     0.126 C 
ATOM     26  O           0     133.313 133.051 142.232  0.00  0.00    -0.266 OA
ENDBRANCH  23  24
ENDBRANCH  22  23
ENDBRANCH   6  22
BRANCH  18  27
ATOM     27  O           0     137.556 133.685 147.608  0.00  0.00    -0.362 OA
ATOM     28  H           0     137.163 134.311 148.230  0.00  0.00     0.213 HD
ENDBRANCH  18  27
BRANCH  18  29
ATOM     29  O           0     135.817 134.576 146.307  0.00  0.00    -0.362 OA
ATOM     30  H           0     135.669 134.562 145.351  0.00  0.00     0.213 HD
ENDBRANCH  18  29
TORSDOF 5
ENDMDL
MODEL 8
REMARK VINA RESULT:      -6.7      1.744      5.426
REMARK  5 active torsions:
REMARK  status: ('A' for Active; 'I' for Inactive)
REMARK    1  A    between atoms: C_6  and  C_7 
REMARK    2  A    between atoms: C_7  and  O_8 
REMARK    3  A    between atoms: O_8  and  C_9 
REMARK    4  A    between atoms: C_23  and  O_24 
REMARK    5  A    between atoms: C_23  and  O_25 
ROOT
ATOM      1  N           0     136.688 135.648 143.469  0.00  0.00    -0.235 N 
ATOM      2  H           0     135.964 136.055 142.968  0.00  0.00     0.174 HD
ATOM      3  H           0     137.590 135.993 143.385  0.00  0.00     0.174 HD
ATOM      4  C           0     136.447 134.640 144.261  0.00  0.00     0.672 C 
ATOM      5  N           0     135.175 134.116 144.419  0.00  0.00    -0.218 N 
ATOM      6  C           0     135.049 132.705 144.768  0.00  0.00     0.151 C 
ATOM      7  C           0     135.897 132.319 145.965  0.00  0.00     0.180 C 
ATOM      8  N           0     135.238 132.793 147.201  0.00  0.00    -0.216 N 
ATOM      9  C           0     136.218 133.265 148.039  0.00  0.00     0.670 C 
ATOM     10  N           0     136.070 133.422 149.325  0.00  0.00    -0.235 N 
ATOM     11  H           0     135.224 133.200 149.746  0.00  0.00     0.174 HD
ATOM     12  H           0     136.804 133.760 149.860  0.00  0.00     0.174 HD
ATOM     13  C           0     137.262 132.989 146.001  0.00  0.00     0.217 C 
ATOM     14  N           0     137.374 133.551 147.356  0.00  0.00    -0.191 N 
ATOM     15  N           0     137.436 134.029 144.986  0.00  0.00    -0.183 N 
ATOM     16  C           0     138.892 134.226 144.876  0.00  0.00     0.150 C 
ATOM     17  C           0     139.483 132.802 145.007  0.00  0.00     0.093 C 
ATOM     18  C           0     138.401 131.984 145.755  0.00  0.00     0.209 C 
ATOM     19  H           0     134.389 134.673 144.302  0.00  0.00     0.178 HD
ATOM     20  H           0     134.285 132.775 147.386  0.00  0.00     0.178 HD
ATOM     21  H           0     138.136 134.038 147.708  0.00  0.00     0.180 HD
ENDROOT
BRANCH   6  22
ATOM     22  C           0     135.477 131.858 143.569  0.00  0.00     0.206 C 
BRANCH  22  23
ATOM     23  O           0     134.343 131.664 142.683  0.00  0.00    -0.320 OA
BRANCH  23  24
ATOM     24  C           0     134.018 132.613 141.792  0.00  0.00     0.254 C 
ATOM     25  C           0     132.575 132.833 141.418  0.00  0.00     0.126 C 
ATOM     26  O           0     134.882 133.290 141.287  0.00  0.00    -0.266 OA
ENDBRANCH  23  24
ENDBRANCH  22  23
ENDBRANCH   6  22
BRANCH  18  27
ATOM     27  O           0     138.915 131.494 146.994  0.00  0.00    -0.362 OA
ATOM     28  H           0     139.347 132.239 147.433  0.00  0.00     0.213 HD
ENDBRANCH  18  27
BRANCH  18  29
ATOM     29  O           0     137.942 130.903 144.941  0.00  0.00    -0.362 OA
ATOM     30  H           0     138.606 130.773 144.250  0.00  0.00     0.213 HD
ENDBRANCH  18  29
TORSDOF 5
ENDMDL
MODEL 9
REMARK VINA RESULT:      -6.7      2.208      4.442
REMARK  5 active torsions:
REMARK  status: ('A' for Active; 'I' for Inactive)
REMARK    1  A    between atoms: C_6  and  C_7 
REMARK    2  A    between atoms: C_7  and  O_8 
REMARK    3  A    between atoms: O_8  and  C_9 
REMARK    4  A    between atoms: C_23  and  O_24 
REMARK    5  A    between atoms: C_23  and  O_25 
ROOT
ATOM      1  N           0     135.426 135.445 143.101  0.00  0.00    -0.235 N 
ATOM      2  H           0     134.494 135.700 143.190  0.00  0.00     0.174 HD
ATOM      3  H           0     135.883 135.564 142.254  0.00  0.00     0.174 HD
ATOM      4  C           0     136.066 134.949 144.123  0.00  0.00     0.672 C 
ATOM      5  N           0     135.460 134.767 145.354  0.00  0.00    -0.218 N 
ATOM      6  C           0     135.956 133.700 146.217  0.00  0.00     0.151 C 
ATOM      7  C           0     137.460 133.753 146.408  0.00  0.00     0.180 C 
ATOM      8  N           0     137.791 134.827 147.368  0.00  0.00    -0.216 N 
ATOM      9  C           0     138.926 135.454 146.913  0.00  0.00     0.670 C 
ATOM     10  N           0     139.705 136.188 147.658  0.00  0.00    -0.235 N 
ATOM     11  H           0     139.497 136.318 148.597  0.00  0.00     0.174 HD
ATOM     12  H           0     140.493 136.602 147.274  0.00  0.00     0.174 HD
ATOM     13  C           0     138.232 134.134 145.154  0.00  0.00     0.217 C 
ATOM     14  N           0     139.138 135.213 145.579  0.00  0.00    -0.191 N 
ATOM     15  N           0     137.381 134.570 144.046  0.00  0.00    -0.183 N 
ATOM     16  C           0     138.221 134.455 142.841  0.00  0.00     0.150 C 
ATOM     17  C           0     139.040 133.163 143.066  0.00  0.00     0.093 C 
ATOM     18  C           0     139.048 132.952 144.601  0.00  0.00     0.209 C 
ATOM     19  H           0     134.725 135.335 145.636  0.00  0.00     0.178 HD
ATOM     20  H           0     137.296 135.050 148.172  0.00  0.00     0.178 HD
ATOM     21  H           0     139.778 135.672 145.014  0.00  0.00     0.180 HD
ENDROOT
BRANCH   6  22
ATOM     22  C           0     135.586 132.351 145.599  0.00  0.00     0.206 C 
BRANCH  22  23
ATOM     23  O           0     135.232 131.416 146.651  0.00  0.00    -0.320 OA
BRANCH  23  24
ATOM     24  C           0     135.811 130.206 146.697  0.00  0.00     0.254 C 
ATOM     25  C           0     134.969 128.963 146.572  0.00  0.00     0.126 C 
ATOM     26  O           0     137.007 130.114 146.841  0.00  0.00    -0.266 OA
ENDBRANCH  23  24
ENDBRANCH  22  23
ENDBRANCH   6  22
BRANCH  18  27
ATOM     27  O           0     140.385 132.987 145.102  0.00  0.00    -0.362 OA
ATOM     28  H           0     140.370 132.562 145.970  0.00  0.00     0.213 HD
ENDBRANCH  18  27
BRANCH  18  29
ATOM     29  O           0     138.420 131.714 144.938  0.00  0.00    -0.362 OA
ATOM     30  H           0     139.098 131.029 144.868  0.00  0.00     0.213 HD
ENDBRANCH  18  29
TORSDOF 5
ENDMDL
