# created with PyMOL 2.3.4
@<TRIPOS>MOLECULE
ligand_out_0001
32 34 1                 
SMALL
USER_CHARGES
@<TRIPOS>ATOM
1	   N	135.870	134.699	146.897	N.3	1	UNK0	-0.235	
2	   N	136.264	135.077	144.608	N.3	1	UNK0	-0.218	
3	   N	134.796	133.912	142.164	N.3	1	UNK0	-0.216	
4	   N	132.591	133.161	141.748	N.3	1	UNK0	-0.235	
5	   N	133.854	132.437	143.611	N.3	1	UNK0	-0.191	
6	   N	135.459	133.011	145.328	N.3	1	UNK0	-0.183	
7	   N	140.054	134.650	140.742	N.pl3	1	UNK0	-0.346	
8	   C	135.861	134.277	145.663	C.3	1	UNK0	0.672	
9	   C	136.821	134.431	143.424	C.3	1	UNK0	0.151	
10	   C	135.936	133.320	142.894	C.3	1	UNK0	0.180	
11	   C	133.680	133.170	142.464	C.3	1	UNK0	0.670	
12	   C	135.280	132.479	143.977	C.3	1	UNK0	0.217	
13	   C	135.172	131.883	146.233	C.3	1	UNK0	0.150	
14	   C	135.782	130.653	145.517	C.3	1	UNK0	0.093	
15	   C	135.850	131.051	144.021	C.3	1	UNK0	0.209	
16	   C	138.189	133.846	143.778	C.2	1	UNK0	0.208	
17	   C	139.559	134.746	141.992	C.2	1	UNK0	0.358	
18	   O	138.973	133.679	142.568	O.2	1	UNK0	-0.302	
19	   O	139.639	135.796	142.598	O.co2	1	UNK0	-0.239	
20	   O	135.051	130.165	143.234	O.2	1	UNK0	-0.362	
21	   O	137.204	131.042	143.564	O.2	1	UNK0	-0.362	
22	   H	136.165	135.600	147.100	 H	1	UNK0	0.174	
23	   H	135.577	134.112	147.612	 H	1	UNK0	0.174	
24	   H	132.535	133.704	140.946	 H	1	UNK0	0.174	
25	   H	131.838	132.612	142.017	 H	1	UNK0	0.174	
26	   H	136.178	136.042	144.655	 H	1	UNK0	0.178	
27	   H	134.829	134.685	141.578	 H	1	UNK0	0.178	
28	   H	133.157	131.969	144.097	 H	1	UNK0	0.180	
29	   H	139.990	133.812	140.257	 H	1	UNK0	0.161	
30	   H	140.476	135.419	140.327	 H	1	UNK0	0.161	
31	   H	134.959	129.347	143.742	 H	1	UNK0	0.213	
32	   H	137.481	131.967	143.495	 H	1	UNK0	0.213	
@<TRIPOS>BOND
1 1 8 1
2 1 22 1
3 1 23 1
4 2 9 1
5 2 26 1
6 3 11 1
7 3 27 1
8 4 24 1
9 4 25 1
10 5 28 1
11 6 13 1
12 7 29 1
13 7 30 1
14 2 8 1
15 6 8 1
16 9 10 1
17 9 16 1
18 3 10 1
19 10 12 1
20 4 11 1
21 5 11 1
22 5 12 1
23 6 12 1
24 12 15 1
25 13 14 1
26 14 15 1
27 15 20 2
28 15 21 2
29 16 18 2
30 7 17 1
31 17 19 2
32 17 18 2
33 20 31 1
34 21 32 1
@<TRIPOS>SUBSTRUCTURE
1	UNK0	1	GROUP	1 ****	UNK
