# created with PyMOL 2.3.4
@<TRIPOS>MOLECULE
ligand_out_0001
32 34 1                 
SMALL
USER_CHARGES
@<TRIPOS>ATOM
1	   N	135.239	136.877	143.196	N.3	1	UNK0	-0.235	
2	   N	133.750	135.056	143.238	N.3	1	UNK0	-0.218	
3	   N	133.888	132.469	144.905	N.3	1	UNK0	-0.215	
4	   N	134.784	131.897	147.019	N.3	1	UNK0	-0.235	
5	   N	136.031	133.058	145.379	N.3	1	UNK0	-0.187	
6	   N	136.026	134.712	143.613	N.3	1	UNK0	-0.183	
7	   N	133.540	136.183	139.716	N.pl3	1	UNK0	-0.346	
8	   C	135.018	135.601	143.346	C.3	1	UNK0	0.672	
9	   C	133.628	133.670	142.795	C.3	1	UNK0	0.151	
10	   C	134.510	132.724	143.588	C.3	1	UNK0	0.180	
11	   C	134.894	132.441	145.839	C.3	1	UNK0	0.672	
12	   C	135.877	133.291	143.933	C.3	1	UNK0	0.219	
13	   C	137.199	133.418	146.187	C.3	1	UNK0	0.171	
14	   C	137.480	134.956	143.585	C.3	1	UNK0	0.150	
15	   C	138.069	133.683	142.932	C.3	1	UNK0	0.093	
16	   C	137.005	132.580	143.166	C.3	1	UNK0	0.210	
17	   C	134.020	133.586	141.319	C.2	1	UNK0	0.208	
18	   C	133.170	134.909	139.474	C.2	1	UNK0	0.358	
19	   O	132.924	134.073	140.500	O.2	1	UNK0	-0.302	
20	   O	133.059	134.515	138.329	O.co2	1	UNK0	-0.239	
21	   O	137.554	131.517	143.949	O.2	1	UNK0	-0.362	
22	   O	136.520	132.082	141.918	O.2	1	UNK0	-0.362	
23	   H	134.503	137.477	143.003	 H	1	UNK0	0.174	
24	   H	136.140	137.226	143.283	 H	1	UNK0	0.174	
25	   H	133.951	131.476	147.282	 H	1	UNK0	0.174	
26	   H	135.535	131.912	147.632	 H	1	UNK0	0.174	
27	   H	132.963	135.582	143.452	 H	1	UNK0	0.178	
28	   H	132.943	132.344	145.077	 H	1	UNK0	0.178	
29	   H	133.629	136.496	140.629	 H	1	UNK0	0.161	
30	   H	133.717	136.785	138.976	 H	1	UNK0	0.161	
31	   H	138.304	131.163	143.451	 H	1	UNK0	0.213	
32	   H	135.761	131.518	142.119	 H	1	UNK0	0.213	
@<TRIPOS>BOND
1 1 8 1
2 1 23 1
3 1 24 1
4 2 9 1
5 2 27 1
6 3 11 1
7 3 28 1
8 4 25 1
9 4 26 1
10 5 13 1
11 6 14 1
12 7 29 1
13 7 30 1
14 2 8 1
15 6 8 1
16 9 10 1
17 9 17 1
18 3 10 1
19 10 12 1
20 4 11 1
21 5 11 1
22 5 12 1
23 6 12 1
24 12 16 1
25 14 15 1
26 15 16 1
27 16 21 2
28 16 22 2
29 17 19 2
30 7 18 1
31 18 20 2
32 18 19 2
33 21 31 1
34 22 32 1
@<TRIPOS>SUBSTRUCTURE
1	UNK0	1	GROUP	1 ****	UNK
