MODEL 1
REMARK VINA RESULT:      -8.3      0.000      0.000
REMARK  5 active torsions:
REMARK  status: ('A' for Active; 'I' for Inactive)
REMARK    1  A    between atoms: C_6  and  C_7 
REMARK    2  A    between atoms: C_7  and  O_8 
REMARK    3  A    between atoms: O_8  and  C_9 
REMARK       I    between atoms: C_9  and  N_10 
REMARK    4  A    between atoms: C_24  and  O_25 
REMARK    5  A    between atoms: C_24  and  O_26 
ROOT
ATOM      1  N           0     135.239 136.877 143.196  0.00  0.00    -0.235 N 
ATOM      2  H           0     134.503 137.477 143.003  0.00  0.00     0.174 HD
ATOM      3  H           0     136.140 137.226 143.283  0.00  0.00     0.174 HD
ATOM      4  C           0     135.018 135.601 143.346  0.00  0.00     0.672 C 
ATOM      5  N           0     133.750 135.056 143.238  0.00  0.00    -0.218 N 
ATOM      6  C           0     133.628 133.670 142.795  0.00  0.00     0.151 C 
ATOM      7  C           0     134.510 132.724 143.588  0.00  0.00     0.180 C 
ATOM      8  N           0     133.888 132.469 144.905  0.00  0.00    -0.215 N 
ATOM      9  C           0     134.894 132.441 145.839  0.00  0.00     0.672 C 
ATOM     10  N           0     134.784 131.897 147.019  0.00  0.00    -0.235 N 
ATOM     11  H           0     133.951 131.476 147.282  0.00  0.00     0.174 HD
ATOM     12  H           0     135.535 131.912 147.632  0.00  0.00     0.174 HD
ATOM     13  C           0     135.877 133.291 143.933  0.00  0.00     0.219 C 
ATOM     14  N           0     136.031 133.058 145.379  0.00  0.00    -0.187 N 
ATOM     15  C           0     137.199 133.418 146.187  0.00  0.00     0.171 C 
ATOM     16  N           0     136.026 134.712 143.613  0.00  0.00    -0.183 N 
ATOM     17  C           0     137.480 134.956 143.585  0.00  0.00     0.150 C 
ATOM     18  C           0     138.069 133.683 142.932  0.00  0.00     0.093 C 
ATOM     19  C           0     137.005 132.580 143.166  0.00  0.00     0.210 C 
ATOM     20  H           0     132.963 135.582 143.452  0.00  0.00     0.178 HD
ATOM     21  H           0     132.943 132.344 145.077  0.00  0.00     0.178 HD
ENDROOT
BRANCH   6  22
ATOM     22  C           0     134.020 133.586 141.319  0.00  0.00     0.208 C 
BRANCH  22  23
ATOM     23  O           0     132.924 134.073 140.500  0.00  0.00    -0.302 OA
BRANCH  23  24
ATOM     24  C           0     133.170 134.909 139.474  0.00  0.00     0.358 C 
ATOM     25  N           0     133.540 136.183 139.716  0.00  0.00    -0.346 N 
ATOM     26  H           0     133.629 136.496 140.629  0.00  0.00     0.161 HD
ATOM     27  H           0     133.717 136.785 138.976  0.00  0.00     0.161 HD
ATOM     28  O           0     133.059 134.515 138.329  0.00  0.00    -0.239 OA
ENDBRANCH  23  24
ENDBRANCH  22  23
ENDBRANCH   6  22
BRANCH  19  29
ATOM     29  O           0     137.554 131.517 143.949  0.00  0.00    -0.362 OA
ATOM     30  H           0     138.304 131.163 143.451  0.00  0.00     0.213 HD
ENDBRANCH  19  29
BRANCH  19  31
ATOM     31  O           0     136.520 132.082 141.918  0.00  0.00    -0.362 OA
ATOM     32  H           0     135.761 131.518 142.119  0.00  0.00     0.213 HD
ENDBRANCH  19  31
TORSDOF 5
ENDMDL
MODEL 2
REMARK VINA RESULT:      -8.1      1.560      1.960
REMARK  5 active torsions:
REMARK  status: ('A' for Active; 'I' for Inactive)
REMARK    1  A    between atoms: C_6  and  C_7 
REMARK    2  A    between atoms: C_7  and  O_8 
REMARK    3  A    between atoms: O_8  and  C_9 
REMARK       I    between atoms: C_9  and  N_10 
REMARK    4  A    between atoms: C_24  and  O_25 
REMARK    5  A    between atoms: C_24  and  O_26 
ROOT
ATOM      1  N           0     137.521 134.936 143.016  0.00  0.00    -0.235 N 
ATOM      2  H           0     137.624 135.804 142.598  0.00  0.00     0.174 HD
ATOM      3  H           0     138.305 134.401 143.222  0.00  0.00     0.174 HD
ATOM      4  C           0     136.333 134.489 143.308  0.00  0.00     0.672 C 
ATOM      5  N           0     135.186 135.216 143.040  0.00  0.00    -0.218 N 
ATOM      6  C           0     133.945 134.487 142.793  0.00  0.00     0.151 C 
ATOM      7  C           0     133.644 133.465 143.872  0.00  0.00     0.180 C 
ATOM      8  N           0     133.121 134.161 145.068  0.00  0.00    -0.215 N 
ATOM      9  C           0     133.662 133.550 146.173  0.00  0.00     0.672 C 
ATOM     10  N           0     133.170 133.642 147.376  0.00  0.00    -0.235 N 
ATOM     11  H           0     132.371 134.169 147.533  0.00  0.00     0.174 HD
ATOM     12  H           0     133.602 133.185 148.114  0.00  0.00     0.174 HD
ATOM     13  C           0     134.868 132.725 144.387  0.00  0.00     0.219 C 
ATOM     14  N           0     134.786 132.829 145.854  0.00  0.00    -0.187 N 
ATOM     15  C           0     135.739 132.257 146.809  0.00  0.00     0.171 C 
ATOM     16  N           0     136.137 133.266 143.894  0.00  0.00    -0.183 N 
ATOM     17  C           0     137.127 132.196 144.111  0.00  0.00     0.150 C 
ATOM     18  C           0     136.363 130.893 143.781  0.00  0.00     0.093 C 
ATOM     19  C           0     134.865 131.245 143.967  0.00  0.00     0.210 C 
ATOM     20  H           0     135.206 136.186 143.017  0.00  0.00     0.178 HD
ATOM     21  H           0     132.508 134.911 145.071  0.00  0.00     0.178 HD
ENDROOT
BRANCH   6  22
ATOM     22  C           0     134.056 133.765 141.449  0.00  0.00     0.208 C 
BRANCH  22  23
ATOM     23  O           0     132.940 134.146 140.602  0.00  0.00    -0.302 OA
BRANCH  23  24
ATOM     24  C           0     133.151 134.911 139.515  0.00  0.00     0.358 C 
ATOM     25  N           0     133.527 136.198 139.659  0.00  0.00    -0.346 N 
ATOM     26  H           0     133.645 136.572 140.545  0.00  0.00     0.161 HD
ATOM     27  H           0     133.679 136.750 138.875  0.00  0.00     0.161 HD
ATOM     28  O           0     133.003 134.442 138.403  0.00  0.00    -0.239 OA
ENDBRANCH  23  24
ENDBRANCH  22  23
ENDBRANCH   6  22
BRANCH  19  29
ATOM     29  O           0     134.285 130.433 144.990  0.00  0.00    -0.362 OA
ATOM     30  H           0     133.541 129.964 144.587  0.00  0.00     0.213 HD
ENDBRANCH  19  29
BRANCH  19  31
ATOM     31  O           0     134.158 131.080 142.737  0.00  0.00    -0.362 OA
ATOM     32  H           0     134.045 130.128 142.605  0.00  0.00     0.213 HD
ENDBRANCH  19  31
TORSDOF 5
ENDMDL
MODEL 3
REMARK VINA RESULT:      -7.0      2.370      3.311
REMARK  5 active torsions:
REMARK  status: ('A' for Active; 'I' for Inactive)
REMARK    1  A    between atoms: C_6  and  C_7 
REMARK    2  A    between atoms: C_7  and  O_8 
REMARK    3  A    between atoms: O_8  and  C_9 
REMARK       I    between atoms: C_9  and  N_10 
REMARK    4  A    between atoms: C_24  and  O_25 
REMARK    5  A    between atoms: C_24  and  O_26 
ROOT
ATOM      1  N           0     134.560 134.766 146.925  0.00  0.00    -0.235 N 
ATOM      2  H           0     133.741 135.257 146.755  0.00  0.00     0.174 HD
ATOM      3  H           0     135.190 135.090 147.588  0.00  0.00     0.174 HD
ATOM      4  C           0     134.812 133.669 146.268  0.00  0.00     0.672 C 
ATOM      5  N           0     133.942 133.165 145.317  0.00  0.00    -0.218 N 
ATOM      6  C           0     134.496 132.370 144.225  0.00  0.00     0.151 C 
ATOM      7  C           0     135.400 131.255 144.713  0.00  0.00     0.180 C 
ATOM      8  N           0     134.568 130.149 145.236  0.00  0.00    -0.215 N 
ATOM      9  C           0     135.187 129.661 146.360  0.00  0.00     0.672 C 
ATOM     10  N           0     134.955 128.485 146.872  0.00  0.00    -0.235 N 
ATOM     11  H           0     134.309 127.893 146.454  0.00  0.00     0.174 HD
ATOM     12  H           0     135.427 128.201 147.670  0.00  0.00     0.174 HD
ATOM     13  C           0     136.279 131.638 145.892  0.00  0.00     0.219 C 
ATOM     14  N           0     136.081 130.564 146.880  0.00  0.00    -0.187 N 
ATOM     15  C           0     136.730 130.473 148.190  0.00  0.00     0.171 C 
ATOM     16  N           0     135.958 132.945 146.469  0.00  0.00    -0.183 N 
ATOM     17  C           0     137.146 133.329 147.252  0.00  0.00     0.150 C 
ATOM     18  C           0     138.341 132.842 146.399  0.00  0.00     0.093 C 
ATOM     19  C           0     137.764 131.720 145.500  0.00  0.00     0.210 C 
ATOM     20  H           0     132.988 133.334 145.376  0.00  0.00     0.178 HD
ATOM     21  H           0     133.737 129.828 144.853  0.00  0.00     0.178 HD
ENDROOT
BRANCH   6  22
ATOM     22  C           0     135.302 133.289 143.305  0.00  0.00     0.208 C 
BRANCH  22  23
ATOM     23  O           0     134.478 134.414 142.902  0.00  0.00    -0.302 OA
BRANCH  23  24
ATOM     24  C           0     134.877 135.671 143.172  0.00  0.00     0.358 C 
ATOM     25  N           0     136.152 135.910 143.540  0.00  0.00    -0.346 N 
ATOM     26  H           0     136.781 135.176 143.610  0.00  0.00     0.161 HD
ATOM     27  H           0     136.440 136.816 143.735  0.00  0.00     0.161 HD
ATOM     28  O           0     134.088 136.592 143.084  0.00  0.00    -0.239 OA
ENDBRANCH  23  24
ENDBRANCH  22  23
ENDBRANCH   6  22
BRANCH  19  29
ATOM     29  O           0     138.424 130.480 145.766  0.00  0.00    -0.362 OA
ATOM     30  H           0     139.371 130.671 145.805  0.00  0.00     0.213 HD
ENDBRANCH  19  29
BRANCH  19  31
ATOM     31  O           0     137.895 132.069 144.121  0.00  0.00    -0.362 OA
ATOM     32  H           0     138.103 131.253 143.644  0.00  0.00     0.213 HD
ENDBRANCH  19  31
TORSDOF 5
ENDMDL
MODEL 4
REMARK VINA RESULT:      -6.9      5.516     10.202
REMARK  5 active torsions:
REMARK  status: ('A' for Active; 'I' for Inactive)
REMARK    1  A    between atoms: C_6  and  C_7 
REMARK    2  A    between atoms: C_7  and  O_8 
REMARK    3  A    between atoms: O_8  and  C_9 
REMARK       I    between atoms: C_9  and  N_10 
REMARK    4  A    between atoms: C_24  and  O_25 
REMARK    5  A    between atoms: C_24  and  O_26 
ROOT
ATOM      1  N           0     131.419 132.189 134.937  0.00  0.00    -0.235 N 
ATOM      2  H           0     130.828 131.840 135.622  0.00  0.00     0.174 HD
ATOM      3  H           0     131.797 131.592 134.271  0.00  0.00     0.174 HD
ATOM      4  C           0     131.699 133.461 134.904  0.00  0.00     0.672 C 
ATOM      5  N           0     131.180 134.353 135.827  0.00  0.00    -0.218 N 
ATOM      6  C           0     131.955 135.550 136.144  0.00  0.00     0.151 C 
ATOM      7  C           0     132.389 136.311 134.907  0.00  0.00     0.180 C 
ATOM      8  N           0     131.237 137.070 134.375  0.00  0.00    -0.215 N 
ATOM      9  C           0     131.283 136.988 133.005  0.00  0.00     0.672 C 
ATOM     10  N           0     130.666 137.807 132.200  0.00  0.00    -0.235 N 
ATOM     11  H           0     130.133 138.532 132.563  0.00  0.00     0.174 HD
ATOM     12  H           0     130.741 137.693 131.240  0.00  0.00     0.174 HD
ATOM     13  C           0     132.808 135.423 133.746  0.00  0.00     0.219 C 
ATOM     14  N           0     132.059 135.936 132.586  0.00  0.00    -0.187 N 
ATOM     15  C           0     132.134 135.416 131.218  0.00  0.00     0.171 C 
ATOM     16  N           0     132.532 134.001 133.960  0.00  0.00    -0.183 N 
ATOM     17  C           0     133.382 133.289 132.988  0.00  0.00     0.150 C 
ATOM     18  C           0     134.703 134.094 132.971  0.00  0.00     0.093 C 
ATOM     19  C           0     134.319 135.510 133.472  0.00  0.00     0.210 C 
ATOM     20  H           0     130.323 134.188 136.250  0.00  0.00     0.178 HD
ATOM     21  H           0     130.570 137.541 134.899  0.00  0.00     0.178 HD
ENDROOT
BRANCH   6  22
ATOM     22  C           0     133.202 135.137 136.930  0.00  0.00     0.208 C 
BRANCH  22  23
ATOM     23  O           0     132.807 134.352 138.086  0.00  0.00    -0.302 OA
BRANCH  23  24
ATOM     24  C           0     133.016 134.830 139.327  0.00  0.00     0.358 C 
ATOM     25  N           0     133.517 136.071 139.496  0.00  0.00    -0.346 N 
ATOM     26  H           0     133.725 136.618 138.724  0.00  0.00     0.161 HD
ATOM     27  H           0     133.668 136.415 140.390  0.00  0.00     0.161 HD
ATOM     28  O           0     132.754 134.143 140.295  0.00  0.00    -0.239 OA
ENDBRANCH  23  24
ENDBRANCH  22  23
ENDBRANCH   6  22
BRANCH  19  29
ATOM     29  O           0     134.594 136.485 132.465  0.00  0.00    -0.362 OA
ATOM     30  H           0     135.108 136.040 131.778  0.00  0.00     0.213 HD
ENDBRANCH  19  29
BRANCH  19  31
ATOM     31  O           0     135.024 135.821 134.675  0.00  0.00    -0.362 OA
ATOM     32  H           0     135.247 134.978 135.095  0.00  0.00     0.213 HD
ENDBRANCH  19  31
TORSDOF 5
ENDMDL
MODEL 5
REMARK VINA RESULT:      -6.6      7.550     10.154
REMARK  5 active torsions:
REMARK  status: ('A' for Active; 'I' for Inactive)
REMARK    1  A    between atoms: C_6  and  C_7 
REMARK    2  A    between atoms: C_7  and  O_8 
REMARK    3  A    between atoms: O_8  and  C_9 
REMARK       I    between atoms: C_9  and  N_10 
REMARK    4  A    between atoms: C_24  and  O_25 
REMARK    5  A    between atoms: C_24  and  O_26 
ROOT
ATOM      1  N           0     132.887 138.004 132.083  0.00  0.00    -0.235 N 
ATOM      2  H           0     132.291 138.714 131.801  0.00  0.00     0.174 HD
ATOM      3  H           0     133.816 138.010 131.801  0.00  0.00     0.174 HD
ATOM      4  C           0     132.444 137.045 132.846  0.00  0.00     0.672 C 
ATOM      5  N           0     131.130 136.995 133.279  0.00  0.00    -0.218 N 
ATOM      6  C           0     130.543 135.689 133.561  0.00  0.00     0.151 C 
ATOM      7  C           0     131.402 134.850 134.487  0.00  0.00     0.180 C 
ATOM      8  N           0     131.243 135.338 135.873  0.00  0.00    -0.215 N 
ATOM      9  C           0     132.478 135.293 136.472  0.00  0.00     0.672 C 
ATOM     10  N           0     132.667 135.298 137.762  0.00  0.00    -0.235 N 
ATOM     11  H           0     131.907 135.335 138.363  0.00  0.00     0.174 HD
ATOM     12  H           0     133.568 135.265 138.121  0.00  0.00     0.174 HD
ATOM     13  C           0     132.895 134.969 134.227  0.00  0.00     0.219 C 
ATOM     14  N           0     133.490 135.243 135.546  0.00  0.00    -0.187 N 
ATOM     15  C           0     134.917 135.426 135.822  0.00  0.00     0.171 C 
ATOM     16  N           0     133.246 136.016 133.266  0.00  0.00    -0.183 N 
ATOM     17  C           0     134.611 135.690 132.814  0.00  0.00     0.150 C 
ATOM     18  C           0     134.621 134.147 132.709  0.00  0.00     0.093 C 
ATOM     19  C           0     133.484 133.671 133.648  0.00  0.00     0.210 C 
ATOM     20  H           0     130.613 137.809 133.392  0.00  0.00     0.178 HD
ATOM     21  H           0     130.417 135.635 136.284  0.00  0.00     0.178 HD
ENDROOT
BRANCH   6  22
ATOM     22  C           0     130.358 134.935 132.243  0.00  0.00     0.208 C 
BRANCH  22  23
ATOM     23  O           0     128.984 134.481 132.133  0.00  0.00    -0.302 OA
BRANCH  23  24
ATOM     24  C           0     128.715 133.167 132.027  0.00  0.00     0.358 C 
ATOM     25  N           0     129.417 132.274 132.753  0.00  0.00    -0.346 N 
ATOM     26  H           0     130.115 132.580 133.352  0.00  0.00     0.161 HD
ATOM     27  H           0     129.224 131.326 132.676  0.00  0.00     0.161 HD
ATOM     28  O           0     127.839 132.784 131.275  0.00  0.00    -0.239 OA
ENDBRANCH  23  24
ENDBRANCH  22  23
ENDBRANCH   6  22
BRANCH  19  29
ATOM     29  O           0     134.011 132.848 134.691  0.00  0.00    -0.362 OA
ATOM     30  H           0     133.437 132.072 134.752  0.00  0.00     0.213 HD
ENDBRANCH  19  29
BRANCH  19  31
ATOM     31  O           0     132.489 132.962 132.907  0.00  0.00    -0.362 OA
ATOM     32  H           0     131.745 133.568 132.786  0.00  0.00     0.213 HD
ENDBRANCH  19  31
TORSDOF 5
ENDMDL
MODEL 6
REMARK VINA RESULT:      -6.6      8.887     11.537
REMARK  5 active torsions:
REMARK  status: ('A' for Active; 'I' for Inactive)
REMARK    1  A    between atoms: C_6  and  C_7 
REMARK    2  A    between atoms: C_7  and  O_8 
REMARK    3  A    between atoms: O_8  and  C_9 
REMARK       I    between atoms: C_9  and  N_10 
REMARK    4  A    between atoms: C_24  and  O_25 
REMARK    5  A    between atoms: C_24  and  O_26 
ROOT
ATOM      1  N           0     128.811 132.590 130.938  0.00  0.00    -0.235 N 
ATOM      2  H           0     127.911 132.320 130.701  0.00  0.00     0.174 HD
ATOM      3  H           0     129.267 133.271 130.417  0.00  0.00     0.174 HD
ATOM      4  C           0     129.408 132.046 131.961  0.00  0.00     0.672 C 
ATOM      5  N           0     128.798 131.076 132.738  0.00  0.00    -0.218 N 
ATOM      6  C           0     129.645 130.096 133.413  0.00  0.00     0.151 C 
ATOM      7  C           0     130.763 130.741 134.210  0.00  0.00     0.180 C 
ATOM      8  N           0     130.211 131.287 135.468  0.00  0.00    -0.215 N 
ATOM      9  C           0     130.829 132.491 135.703  0.00  0.00     0.672 C 
ATOM     10  N           0     130.871 133.078 136.866  0.00  0.00    -0.235 N 
ATOM     11  H           0     130.449 132.662 137.634  0.00  0.00     0.174 HD
ATOM     12  H           0     131.324 133.930 136.964  0.00  0.00     0.174 HD
ATOM     13  C           0     131.393 131.948 133.533  0.00  0.00     0.219 C 
ATOM     14  N           0     131.395 133.002 134.562  0.00  0.00    -0.187 N 
ATOM     15  C           0     131.918 134.360 134.397  0.00  0.00     0.171 C 
ATOM     16  N           0     130.681 132.391 132.332  0.00  0.00    -0.183 N 
ATOM     17  C           0     131.644 133.228 131.594  0.00  0.00     0.150 C 
ATOM     18  C           0     133.001 132.510 131.785  0.00  0.00     0.093 C 
ATOM     19  C           0     132.832 131.663 133.072  0.00  0.00     0.210 C 
ATOM     20  H           0     127.833 131.049 132.833  0.00  0.00     0.178 HD
ATOM     21  H           0     129.536 130.871 136.025  0.00  0.00     0.178 HD
ENDROOT
BRANCH   6  22
ATOM     22  C           0     130.260 129.169 132.364  0.00  0.00     0.208 C 
BRANCH  22  23
ATOM     23  O           0     130.024 127.787 132.741  0.00  0.00    -0.302 OA
BRANCH  23  24
ATOM     24  C           0     131.060 126.989 133.059  0.00  0.00     0.358 C 
ATOM     25  N           0     130.877 125.658 133.173  0.00  0.00    -0.346 N 
ATOM     26  H           0     129.998 125.276 133.025  0.00  0.00     0.161 HD
ATOM     27  H           0     131.624 125.083 133.403  0.00  0.00     0.161 HD
ATOM     28  O           0     132.162 127.469 133.245  0.00  0.00    -0.239 OA
ENDBRANCH  23  24
ENDBRANCH  22  23
ENDBRANCH   6  22
BRANCH  19  29
ATOM     29  O           0     133.771 132.078 134.067  0.00  0.00    -0.362 OA
ATOM     30  H           0     133.379 131.868 134.926  0.00  0.00     0.213 HD
ENDBRANCH  19  29
BRANCH  19  31
ATOM     31  O           0     132.995 130.275 132.781  0.00  0.00    -0.362 OA
ATOM     32  H           0     133.716 130.206 132.139  0.00  0.00     0.213 HD
ENDBRANCH  19  31
TORSDOF 5
ENDMDL
MODEL 7
REMARK VINA RESULT:      -6.6      8.787     10.691
REMARK  5 active torsions:
REMARK  status: ('A' for Active; 'I' for Inactive)
REMARK    1  A    between atoms: C_6  and  C_7 
REMARK    2  A    between atoms: C_7  and  O_8 
REMARK    3  A    between atoms: O_8  and  C_9 
REMARK       I    between atoms: C_9  and  N_10 
REMARK    4  A    between atoms: C_24  and  O_25 
REMARK    5  A    between atoms: C_24  and  O_26 
ROOT
ATOM      1  N           0     129.465 133.166 131.757  0.00  0.00    -0.235 N 
ATOM      2  H           0     128.780 132.486 131.850  0.00  0.00     0.174 HD
ATOM      3  H           0     129.502 133.710 130.953  0.00  0.00     0.174 HD
ATOM      4  C           0     130.330 133.356 132.712  0.00  0.00     0.672 C 
ATOM      5  N           0     130.315 132.611 133.878  0.00  0.00    -0.218 N 
ATOM      6  C           0     131.576 132.407 134.586  0.00  0.00     0.151 C 
ATOM      7  C           0     132.323 133.703 134.834  0.00  0.00     0.180 C 
ATOM      8  N           0     131.687 134.423 135.958  0.00  0.00    -0.215 N 
ATOM      9  C           0     131.685 135.760 135.645  0.00  0.00     0.672 C 
ATOM     10  N           0     131.544 136.717 136.520  0.00  0.00    -0.235 N 
ATOM     11  H           0     131.433 136.502 137.459  0.00  0.00     0.174 HD
ATOM     12  H           0     131.551 137.643 136.231  0.00  0.00     0.174 HD
ATOM     13  C           0     132.253 134.692 133.682  0.00  0.00     0.219 C 
ATOM     14  N           0     131.847 135.966 134.298  0.00  0.00    -0.187 N 
ATOM     15  C           0     131.655 137.237 133.595  0.00  0.00     0.171 C 
ATOM     16  N           0     131.319 134.301 132.624  0.00  0.00    -0.183 N 
ATOM     17  C           0     131.710 135.095 131.445  0.00  0.00     0.150 C 
ATOM     18  C           0     133.256 135.124 131.499  0.00  0.00     0.093 C 
ATOM     19  C           0     133.613 134.859 132.983  0.00  0.00     0.210 C 
ATOM     20  H           0     129.487 132.235 134.217  0.00  0.00     0.178 HD
ATOM     21  H           0     131.337 134.023 136.769  0.00  0.00     0.178 HD
ENDROOT
BRANCH   6  22
ATOM     22  C           0     132.464 131.479 133.755  0.00  0.00     0.208 C 
BRANCH  22  23
ATOM     23  O           0     133.525 130.948 134.591  0.00  0.00    -0.302 OA
BRANCH  23  24
ATOM     24  C           0     134.585 130.338 134.028  0.00  0.00     0.358 C 
ATOM     25  N           0     135.575 131.073 133.482  0.00  0.00    -0.346 N 
ATOM     26  H           0     135.523 132.041 133.496  0.00  0.00     0.161 HD
ATOM     27  H           0     136.338 130.633 133.076  0.00  0.00     0.161 HD
ATOM     28  O           0     134.649 129.124 134.010  0.00  0.00    -0.239 OA
ENDBRANCH  23  24
ENDBRANCH  22  23
ENDBRANCH   6  22
BRANCH  19  29
ATOM     29  O           0     134.327 135.970 133.530  0.00  0.00    -0.362 OA
ATOM     30  H           0     134.809 136.379 132.799  0.00  0.00     0.213 HD
ENDBRANCH  19  29
BRANCH  19  31
ATOM     31  O           0     134.384 133.662 133.104  0.00  0.00    -0.362 OA
ATOM     32  H           0     135.300 133.897 132.902  0.00  0.00     0.213 HD
ENDBRANCH  19  31
TORSDOF 5
ENDMDL
MODEL 8
REMARK VINA RESULT:      -6.3      2.690      4.339
REMARK  5 active torsions:
REMARK  status: ('A' for Active; 'I' for Inactive)
REMARK    1  A    between atoms: C_6  and  C_7 
REMARK    2  A    between atoms: C_7  and  O_8 
REMARK    3  A    between atoms: O_8  and  C_9 
REMARK       I    between atoms: C_9  and  N_10 
REMARK    4  A    between atoms: C_24  and  O_25 
REMARK    5  A    between atoms: C_24  and  O_26 
ROOT
ATOM      1  N           0     135.002 130.119 143.723  0.00  0.00    -0.235 N 
ATOM      2  H           0     134.818 129.828 142.817  0.00  0.00     0.174 HD
ATOM      3  H           0     134.621 129.638 144.474  0.00  0.00     0.174 HD
ATOM      4  C           0     135.767 131.153 143.933  0.00  0.00     0.672 C 
ATOM      5  N           0     136.338 131.870 142.895  0.00  0.00    -0.218 N 
ATOM      6  C           0     136.626 133.285 143.107  0.00  0.00     0.151 C 
ATOM      7  C           0     137.415 133.537 144.377  0.00  0.00     0.180 C 
ATOM      8  N           0     138.830 133.175 144.151  0.00  0.00    -0.215 N 
ATOM      9  C           0     139.288 132.559 145.290  0.00  0.00     0.672 C 
ATOM     10  N           0     140.549 132.431 145.597  0.00  0.00    -0.235 N 
ATOM     11  H           0     141.230 132.783 145.003  0.00  0.00     0.174 HD
ATOM     12  H           0     140.805 131.984 146.419  0.00  0.00     0.174 HD
ATOM     13  C           0     136.999 132.665 145.551  0.00  0.00     0.219 C 
ATOM     14  N           0     138.255 132.095 146.065  0.00  0.00    -0.187 N 
ATOM     15  C           0     138.382 131.192 147.212  0.00  0.00     0.171 C 
ATOM     16  N           0     136.051 131.607 145.194  0.00  0.00    -0.183 N 
ATOM     17  C           0     135.439 131.186 146.467  0.00  0.00     0.150 C 
ATOM     18  C           0     135.267 132.501 147.263  0.00  0.00     0.093 C 
ATOM     19  C           0     136.303 133.480 146.655  0.00  0.00     0.210 C 
ATOM     20  H           0     136.543 131.441 142.049  0.00  0.00     0.178 HD
ATOM     21  H           0     139.342 133.342 143.344  0.00  0.00     0.178 HD
ENDROOT
BRANCH   6  22
ATOM     22  C           0     135.305 134.051 143.188  0.00  0.00     0.208 C 
BRANCH  22  23
ATOM     23  O           0     135.574 135.477 143.247  0.00  0.00    -0.302 OA
BRANCH  23  24
ATOM     24  C           0     134.555 136.352 143.330  0.00  0.00     0.358 C 
ATOM     25  N           0     134.432 137.334 142.414  0.00  0.00    -0.346 N 
ATOM     26  H           0     135.079 137.409 141.696  0.00  0.00     0.161 HD
ATOM     27  H           0     133.698 137.965 142.474  0.00  0.00     0.161 HD
ATOM     28  O           0     133.744 136.257 144.230  0.00  0.00    -0.239 OA
ENDBRANCH  23  24
ENDBRANCH  22  23
ENDBRANCH   6  22
BRANCH  19  29
ATOM     29  O           0     137.246 133.888 147.649  0.00  0.00    -0.362 OA
ATOM     30  H           0     137.574 133.081 148.070  0.00  0.00     0.213 HD
ENDBRANCH  19  29
BRANCH  19  31
ATOM     31  O           0     135.646 134.617 146.094  0.00  0.00    -0.362 OA
ATOM     32  H           0     135.067 134.287 145.392  0.00  0.00     0.213 HD
ENDBRANCH  19  31
TORSDOF 5
ENDMDL
MODEL 9
REMARK VINA RESULT:      -6.2      2.634      6.052
REMARK  5 active torsions:
REMARK  status: ('A' for Active; 'I' for Inactive)
REMARK    1  A    between atoms: C_6  and  C_7 
REMARK    2  A    between atoms: C_7  and  O_8 
REMARK    3  A    between atoms: O_8  and  C_9 
REMARK       I    between atoms: C_9  and  N_10 
REMARK    4  A    between atoms: C_24  and  O_25 
REMARK    5  A    between atoms: C_24  and  O_26 
ROOT
ATOM      1  N           0     135.200 129.759 145.632  0.00  0.00    -0.235 N 
ATOM      2  H           0     135.145 129.191 146.416  0.00  0.00     0.174 HD
ATOM      3  H           0     135.019 129.392 144.753  0.00  0.00     0.174 HD
ATOM      4  C           0     135.511 131.019 145.760  0.00  0.00     0.672 C 
ATOM      5  N           0     135.772 131.591 146.993  0.00  0.00    -0.218 N 
ATOM      6  C           0     136.678 132.735 147.047  0.00  0.00     0.151 C 
ATOM      7  C           0     136.300 133.826 146.063  0.00  0.00     0.180 C 
ATOM      8  N           0     135.145 134.581 146.594  0.00  0.00    -0.215 N 
ATOM      9  C           0     134.310 134.856 145.539  0.00  0.00     0.672 C 
ATOM     10  N           0     133.401 135.791 145.549  0.00  0.00    -0.235 N 
ATOM     11  H           0     133.283 136.344 146.337  0.00  0.00     0.174 HD
ATOM     12  H           0     132.843 135.933 144.769  0.00  0.00     0.174 HD
ATOM     13  C           0     135.812 133.309 144.719  0.00  0.00     0.219 C 
ATOM     14  N           0     134.550 134.026 144.473  0.00  0.00    -0.187 N 
ATOM     15  C           0     133.699 133.882 143.289  0.00  0.00     0.171 C 
ATOM     16  N           0     135.606 131.860 144.683  0.00  0.00    -0.183 N 
ATOM     17  C           0     135.585 131.505 143.252  0.00  0.00     0.150 C 
ATOM     18  C           0     136.666 132.411 142.616  0.00  0.00     0.093 C 
ATOM     19  C           0     136.813 133.608 143.590  0.00  0.00     0.210 C 
ATOM     20  H           0     135.363 131.241 147.801  0.00  0.00     0.178 HD
ATOM     21  H           0     135.004 134.835 147.519  0.00  0.00     0.178 HD
ENDROOT
BRANCH   6  22
ATOM     22  C           0     138.096 132.258 146.732  0.00  0.00     0.208 C 
BRANCH  22  23
ATOM     23  O           0     138.578 131.422 147.817  0.00  0.00    -0.302 OA
BRANCH  23  24
ATOM     24  C           0     138.707 130.094 147.637  0.00  0.00     0.358 C 
ATOM     25  N           0     139.917 129.564 147.368  0.00  0.00    -0.346 N 
ATOM     26  H           0     140.694 130.140 147.304  0.00  0.00     0.161 HD
ATOM     27  H           0     140.010 128.608 147.238  0.00  0.00     0.161 HD
ATOM     28  O           0     137.732 129.372 147.717  0.00  0.00    -0.239 OA
ENDBRANCH  23  24
ENDBRANCH  22  23
ENDBRANCH   6  22
BRANCH  19  29
ATOM     29  O           0     136.477 134.831 142.931  0.00  0.00    -0.362 OA
ATOM     30  H           0     137.114 134.944 142.212  0.00  0.00     0.213 HD
ENDBRANCH  19  29
BRANCH  19  31
ATOM     31  O           0     138.142 133.668 144.108  0.00  0.00    -0.362 OA
ATOM     32  H           0     138.728 133.335 143.414  0.00  0.00     0.213 HD
ENDBRANCH  19  31
TORSDOF 5
ENDMDL
