MODEL 1
REMARK VINA RESULT:      -7.6      0.000      0.000
REMARK  5 active torsions:
REMARK  status: ('A' for Active; 'I' for Inactive)
REMARK    1  A    between atoms: C_6  and  C_7 
REMARK    2  A    between atoms: C_7  and  O_8 
REMARK    3  A    between atoms: O_8  and  C_9 
REMARK       I    between atoms: C_9  and  N_10 
REMARK    4  A    between atoms: C_24  and  O_25 
REMARK    5  A    between atoms: C_24  and  O_26 
ROOT
ATOM      1  N           0     134.930 132.111 146.752  0.00  0.00    -0.235 N 
ATOM      2  H           0     135.190 132.221 147.681  0.00  0.00     0.174 HD
ATOM      3  H           0     134.262 131.450 146.511  0.00  0.00     0.174 HD
ATOM      4  C           0     135.474 132.853 145.831  0.00  0.00     0.672 C 
ATOM      5  N           0     136.428 133.813 146.124  0.00  0.00    -0.218 N 
ATOM      6  C           0     137.413 134.146 145.100  0.00  0.00     0.151 C 
ATOM      7  C           0     136.777 134.473 143.762  0.00  0.00     0.180 C 
ATOM      8  N           0     136.211 135.837 143.812  0.00  0.00    -0.216 N 
ATOM      9  C           0     135.014 135.814 143.139  0.00  0.00     0.670 C 
ATOM     10  N           0     134.418 136.874 142.670  0.00  0.00    -0.235 N 
ATOM     11  H           0     134.820 137.749 142.787  0.00  0.00     0.174 HD
ATOM     12  H           0     133.572 136.788 142.204  0.00  0.00     0.174 HD
ATOM     13  C           0     135.585 133.595 143.410  0.00  0.00     0.217 C 
ATOM     14  N           0     134.523 134.538 143.022  0.00  0.00    -0.191 N 
ATOM     15  N           0     135.144 132.732 144.506  0.00  0.00    -0.183 N 
ATOM     16  C           0     134.328 131.682 143.869  0.00  0.00     0.150 C 
ATOM     17  C           0     135.063 131.374 142.544  0.00  0.00     0.093 C 
ATOM     18  C           0     135.896 132.646 142.241  0.00  0.00     0.209 C 
ATOM     19  H           0     136.440 134.253 146.989  0.00  0.00     0.178 HD
ATOM     20  H           0     136.613 136.609 144.242  0.00  0.00     0.178 HD
ATOM     21  H           0     133.630 134.298 142.731  0.00  0.00     0.180 HD
ENDROOT
BRANCH   6  22
ATOM     22  C           0     138.359 132.958 144.919  0.00  0.00     0.208 C 
BRANCH  22  23
ATOM     23  O           0     139.009 132.661 146.182  0.00  0.00    -0.302 OA
BRANCH  23  24
ATOM     24  C           0     140.071 131.833 146.215  0.00  0.00     0.360 C 
ATOM     25  N           0     139.970 130.630 146.814  0.00  0.00    -0.341 N 
ATOM     26  C           0     141.125 129.730 146.850  0.00  0.00     0.151 C 
ATOM     27  H           0     139.132 130.360 147.222  0.00  0.00     0.164 HD
ATOM     28  O           0     141.120 132.171 145.705  0.00  0.00    -0.239 OA
ENDBRANCH  23  24
ENDBRANCH  22  23
ENDBRANCH   6  22
BRANCH  18  29
ATOM     29  O           0     135.485 133.225 141.000  0.00  0.00    -0.362 OA
ATOM     30  H           0     136.220 133.113 140.382  0.00  0.00     0.213 HD
ENDBRANCH  18  29
BRANCH  18  31
ATOM     31  O           0     137.289 132.335 142.210  0.00  0.00    -0.362 OA
ATOM     32  H           0     137.565 132.377 141.284  0.00  0.00     0.213 HD
ENDBRANCH  18  31
TORSDOF 5
ENDMDL
MODEL 2
REMARK VINA RESULT:      -7.4      2.428      6.342
REMARK  5 active torsions:
REMARK  status: ('A' for Active; 'I' for Inactive)
REMARK    1  A    between atoms: C_6  and  C_7 
REMARK    2  A    between atoms: C_7  and  O_8 
REMARK    3  A    between atoms: O_8  and  C_9 
REMARK       I    between atoms: C_9  and  N_10 
REMARK    4  A    between atoms: C_24  and  O_25 
REMARK    5  A    between atoms: C_24  and  O_26 
ROOT
ATOM      1  N           0     135.236 136.835 143.268  0.00  0.00    -0.235 N 
ATOM      2  H           0     134.481 137.416 143.080  0.00  0.00     0.174 HD
ATOM      3  H           0     136.117 137.215 143.407  0.00  0.00     0.174 HD
ATOM      4  C           0     135.063 135.546 143.339  0.00  0.00     0.672 C 
ATOM      5  N           0     133.825 134.956 143.154  0.00  0.00    -0.218 N 
ATOM      6  C           0     133.778 133.594 142.633  0.00  0.00     0.151 C 
ATOM      7  C           0     134.670 132.641 143.406  0.00  0.00     0.180 C 
ATOM      8  N           0     134.014 132.288 144.682  0.00  0.00    -0.216 N 
ATOM      9  C           0     134.987 132.249 145.651  0.00  0.00     0.670 C 
ATOM     10  N           0     134.857 131.636 146.794  0.00  0.00    -0.235 N 
ATOM     11  H           0     134.034 131.167 147.003  0.00  0.00     0.174 HD
ATOM     12  H           0     135.584 131.647 147.436  0.00  0.00     0.174 HD
ATOM     13  C           0     136.000 133.244 143.833  0.00  0.00     0.217 C 
ATOM     14  N           0     136.111 132.936 145.268  0.00  0.00    -0.191 N 
ATOM     15  N           0     136.098 134.685 143.597  0.00  0.00    -0.183 N 
ATOM     16  C           0     137.540 134.988 143.637  0.00  0.00     0.150 C 
ATOM     17  C           0     138.207 133.780 142.938  0.00  0.00     0.093 C 
ATOM     18  C           0     137.183 132.623 143.072  0.00  0.00     0.209 C 
ATOM     19  H           0     133.009 135.437 143.366  0.00  0.00     0.178 HD
ATOM     20  H           0     133.068 132.115 144.812  0.00  0.00     0.178 HD
ATOM     21  H           0     136.854 133.176 145.844  0.00  0.00     0.180 HD
ENDROOT
BRANCH   6  22
ATOM     22  C           0     134.225 133.608 141.170  0.00  0.00     0.208 C 
BRANCH  22  23
ATOM     23  O           0     133.617 134.738 140.490  0.00  0.00    -0.302 OA
BRANCH  23  24
ATOM     24  C           0     133.382 134.679 139.165  0.00  0.00     0.360 C 
ATOM     25  N           0     134.152 135.382 138.312  0.00  0.00    -0.341 N 
ATOM     26  C           0     133.895 135.319 136.871  0.00  0.00     0.151 C 
ATOM     27  H           0     134.877 135.930 138.652  0.00  0.00     0.164 HD
ATOM     28  O           0     132.474 133.993 138.740  0.00  0.00    -0.239 OA
ENDBRANCH  23  24
ENDBRANCH  22  23
ENDBRANCH   6  22
BRANCH  18  29
ATOM     29  O           0     137.748 131.542 143.815  0.00  0.00    -0.362 OA
ATOM     30  H           0     138.699 131.548 143.640  0.00  0.00     0.213 HD
ENDBRANCH  18  29
BRANCH  18  31
ATOM     31  O           0     136.765 132.177 141.781  0.00  0.00    -0.362 OA
ATOM     32  H           0     137.562 131.901 141.308  0.00  0.00     0.213 HD
ENDBRANCH  18  31
TORSDOF 5
ENDMDL
MODEL 3
REMARK VINA RESULT:      -7.2      2.534      5.363
REMARK  5 active torsions:
REMARK  status: ('A' for Active; 'I' for Inactive)
REMARK    1  A    between atoms: C_6  and  C_7 
REMARK    2  A    between atoms: C_7  and  O_8 
REMARK    3  A    between atoms: O_8  and  C_9 
REMARK       I    between atoms: C_9  and  N_10 
REMARK    4  A    between atoms: C_24  and  O_25 
REMARK    5  A    between atoms: C_24  and  O_26 
ROOT
ATOM      1  N           0     139.696 130.546 146.201  0.00  0.00    -0.235 N 
ATOM      2  H           0     140.483 130.692 145.652  0.00  0.00     0.174 HD
ATOM      3  H           0     139.682 129.822 146.846  0.00  0.00     0.174 HD
ATOM      4  C           0     138.660 131.326 146.074  0.00  0.00     0.672 C 
ATOM      5  N           0     138.633 132.376 145.173  0.00  0.00    -0.218 N 
ATOM      6  C           0     137.343 132.790 144.630  0.00  0.00     0.151 C 
ATOM      7  C           0     136.308 133.038 145.710  0.00  0.00     0.180 C 
ATOM      8  N           0     136.576 134.343 146.351  0.00  0.00    -0.216 N 
ATOM      9  C           0     136.349 134.197 147.698  0.00  0.00     0.670 C 
ATOM     10  N           0     136.133 135.189 148.515  0.00  0.00    -0.235 N 
ATOM     11  H           0     136.125 136.100 148.182  0.00  0.00     0.174 HD
ATOM     12  H           0     135.979 135.018 149.457  0.00  0.00     0.174 HD
ATOM     13  C           0     136.362 132.047 146.862  0.00  0.00     0.217 C 
ATOM     14  N           0     136.377 132.879 148.077  0.00  0.00    -0.191 N 
ATOM     15  N           0     137.524 131.158 146.822  0.00  0.00    -0.183 N 
ATOM     16  C           0     137.179 130.027 147.703  0.00  0.00     0.150 C 
ATOM     17  C           0     135.677 129.775 147.436  0.00  0.00     0.093 C 
ATOM     18  C           0     135.137 131.118 146.880  0.00  0.00     0.209 C 
ATOM     19  H           0     139.452 132.826 144.909  0.00  0.00     0.178 HD
ATOM     20  H           0     136.860 135.154 145.902  0.00  0.00     0.178 HD
ATOM     21  H           0     136.402 132.550 148.990  0.00  0.00     0.180 HD
ENDROOT
BRANCH   6  22
ATOM     22  C           0     136.826 131.696 143.695  0.00  0.00     0.208 C 
BRANCH  22  23
ATOM     23  O           0     136.481 132.281 142.412  0.00  0.00    -0.302 OA
BRANCH  23  24
ATOM     24  C           0     135.202 132.605 142.142  0.00  0.00     0.360 C 
ATOM     25  N           0     134.927 133.564 141.235  0.00  0.00    -0.341 N 
ATOM     26  C           0     133.536 133.917 140.943  0.00  0.00     0.151 C 
ATOM     27  H           0     135.650 134.020 140.777  0.00  0.00     0.164 HD
ATOM     28  O           0     134.296 132.034 142.716  0.00  0.00    -0.239 OA
ENDBRANCH  23  24
ENDBRANCH  22  23
ENDBRANCH   6  22
BRANCH  18  29
ATOM     29  O           0     134.122 131.640 147.740  0.00  0.00    -0.362 OA
ATOM     30  H           0     134.570 131.992 148.521  0.00  0.00     0.213 HD
ENDBRANCH  18  29
BRANCH  18  31
ATOM     31  O           0     134.628 130.941 145.557  0.00  0.00    -0.362 OA
ATOM     32  H           0     134.449 131.824 145.206  0.00  0.00     0.213 HD
ENDBRANCH  18  31
TORSDOF 5
ENDMDL
MODEL 4
REMARK VINA RESULT:      -6.9      2.318      5.882
REMARK  5 active torsions:
REMARK  status: ('A' for Active; 'I' for Inactive)
REMARK    1  A    between atoms: C_6  and  C_7 
REMARK    2  A    between atoms: C_7  and  O_8 
REMARK    3  A    between atoms: O_8  and  C_9 
REMARK       I    between atoms: C_9  and  N_10 
REMARK    4  A    between atoms: C_24  and  O_25 
REMARK    5  A    between atoms: C_24  and  O_26 
ROOT
ATOM      1  N           0     134.504 130.606 144.475  0.00  0.00    -0.235 N 
ATOM      2  H           0     134.151 130.425 143.589  0.00  0.00     0.174 HD
ATOM      3  H           0     134.174 130.108 145.239  0.00  0.00     0.174 HD
ATOM      4  C           0     135.424 131.514 144.636  0.00  0.00     0.672 C 
ATOM      5  N           0     135.931 132.247 143.577  0.00  0.00    -0.218 N 
ATOM      6  C           0     136.436 133.590 143.844  0.00  0.00     0.151 C 
ATOM      7  C           0     137.429 133.624 144.990  0.00  0.00     0.180 C 
ATOM      8  N           0     138.734 133.112 144.520  0.00  0.00    -0.216 N 
ATOM      9  C           0     139.264 132.342 145.526  0.00  0.00     0.670 C 
ATOM     10  N           0     140.526 132.031 145.621  0.00  0.00    -0.235 N 
ATOM     11  H           0     141.156 132.349 144.956  0.00  0.00     0.174 HD
ATOM     12  H           0     140.836 131.482 146.358  0.00  0.00     0.174 HD
ATOM     13  C           0     137.072 132.705 146.148  0.00  0.00     0.217 C 
ATOM     14  N           0     138.302 131.940 146.417  0.00  0.00    -0.191 N 
ATOM     15  N           0     135.949 131.810 145.867  0.00  0.00    -0.183 N 
ATOM     16  C           0     135.477 131.351 147.187  0.00  0.00     0.150 C 
ATOM     17  C           0     135.602 132.598 148.094  0.00  0.00     0.093 C 
ATOM     18  C           0     136.662 133.493 147.403  0.00  0.00     0.209 C 
ATOM     19  H           0     135.950 131.877 142.680  0.00  0.00     0.178 HD
ATOM     20  H           0     139.141 133.289 143.657  0.00  0.00     0.178 HD
ATOM     21  H           0     138.412 131.268 147.108  0.00  0.00     0.180 HD
ENDROOT
BRANCH   6  22
ATOM     22  C           0     135.258 134.503 144.187  0.00  0.00     0.208 C 
BRANCH  22  23
ATOM     23  O           0     134.806 135.181 142.986  0.00  0.00    -0.302 OA
BRANCH  23  24
ATOM     24  C           0     133.985 134.551 142.124  0.00  0.00     0.360 C 
ATOM     25  N           0     133.868 134.994 140.857  0.00  0.00    -0.341 N 
ATOM     26  C           0     132.974 134.309 139.921  0.00  0.00     0.151 C 
ATOM     27  H           0     134.376 135.767 140.565  0.00  0.00     0.164 HD
ATOM     28  O           0     133.348 133.583 142.491  0.00  0.00    -0.239 OA
ENDBRANCH  23  24
ENDBRANCH  22  23
ENDBRANCH   6  22
BRANCH  18  29
ATOM     29  O           0     137.786 133.688 148.265  0.00  0.00    -0.362 OA
ATOM     30  H           0     137.665 134.546 148.693  0.00  0.00     0.213 HD
ENDBRANCH  18  29
BRANCH  18  31
ATOM     31  O           0     136.091 134.750 147.036  0.00  0.00    -0.362 OA
ATOM     32  H           0     136.828 135.349 146.851  0.00  0.00     0.213 HD
ENDBRANCH  18  31
TORSDOF 5
ENDMDL
MODEL 5
REMARK VINA RESULT:      -6.8     10.036     12.790
REMARK  5 active torsions:
REMARK  status: ('A' for Active; 'I' for Inactive)
REMARK    1  A    between atoms: C_6  and  C_7 
REMARK    2  A    between atoms: C_7  and  O_8 
REMARK    3  A    between atoms: O_8  and  C_9 
REMARK       I    between atoms: C_9  and  N_10 
REMARK    4  A    between atoms: C_24  and  O_25 
REMARK    5  A    between atoms: C_24  and  O_26 
ROOT
ATOM      1  N           0     128.822 134.232 132.050  0.00  0.00    -0.235 N 
ATOM      2  H           0     128.080 133.841 131.561  0.00  0.00     0.174 HD
ATOM      3  H           0     129.012 135.179 131.965  0.00  0.00     0.174 HD
ATOM      4  C           0     129.558 133.485 132.822  0.00  0.00     0.672 C 
ATOM      5  N           0     129.324 132.130 132.980  0.00  0.00    -0.218 N 
ATOM      6  C           0     130.454 131.265 133.303  0.00  0.00     0.151 C 
ATOM      7  C           0     131.257 131.770 134.486  0.00  0.00     0.180 C 
ATOM      8  N           0     130.529 131.462 135.735  0.00  0.00    -0.216 N 
ATOM      9  C           0     130.674 132.539 136.575  0.00  0.00     0.670 C 
ATOM     10  N           0     130.488 132.492 137.864  0.00  0.00    -0.235 N 
ATOM     11  H           0     130.231 131.658 138.287  0.00  0.00     0.174 HD
ATOM     12  H           0     130.606 133.291 138.401  0.00  0.00     0.174 HD
ATOM     13  C           0     131.425 133.281 134.524  0.00  0.00     0.217 C 
ATOM     14  N           0     131.038 133.671 135.890  0.00  0.00    -0.191 N 
ATOM     15  N           0     130.619 133.989 133.529  0.00  0.00    -0.183 N 
ATOM     16  C           0     131.232 135.325 133.412  0.00  0.00     0.150 C 
ATOM     17  C           0     132.752 135.061 133.511  0.00  0.00     0.093 C 
ATOM     18  C           0     132.878 133.705 134.251  0.00  0.00     0.209 C 
ATOM     19  H           0     128.430 131.765 132.879  0.00  0.00     0.178 HD
ATOM     20  H           0     130.039 130.647 135.927  0.00  0.00     0.178 HD
ATOM     21  H           0     131.042 134.573 136.245  0.00  0.00     0.180 HD
ENDROOT
BRANCH   6  22
ATOM     22  C           0     131.374 131.179 132.084  0.00  0.00     0.208 C 
BRANCH  22  23
ATOM     23  O           0     132.290 130.064 132.248  0.00  0.00    -0.302 OA
BRANCH  23  24
ATOM     24  C           0     131.834 128.800 132.166  0.00  0.00     0.360 C 
ATOM     25  N           0     131.865 128.000 133.251  0.00  0.00    -0.341 N 
ATOM     26  C           0     131.370 126.625 133.161  0.00  0.00     0.151 C 
ATOM     27  H           0     132.216 128.336 134.090  0.00  0.00     0.164 HD
ATOM     28  O           0     131.395 128.379 131.114  0.00  0.00    -0.239 OA
ENDBRANCH  23  24
ENDBRANCH  22  23
ENDBRANCH   6  22
BRANCH  18  29
ATOM     29  O           0     133.592 133.871 135.477  0.00  0.00    -0.362 OA
ATOM     30  H           0     133.138 134.565 135.974  0.00  0.00     0.213 HD
ENDBRANCH  18  29
BRANCH  18  31
ATOM     31  O           0     133.529 132.743 133.420  0.00  0.00    -0.362 OA
ATOM     32  H           0     132.853 132.372 132.837  0.00  0.00     0.213 HD
ENDBRANCH  18  31
TORSDOF 5
ENDMDL
MODEL 6
REMARK VINA RESULT:      -6.8      2.745      4.490
REMARK  5 active torsions:
REMARK  status: ('A' for Active; 'I' for Inactive)
REMARK    1  A    between atoms: C_6  and  C_7 
REMARK    2  A    between atoms: C_7  and  O_8 
REMARK    3  A    between atoms: O_8  and  C_9 
REMARK       I    between atoms: C_9  and  N_10 
REMARK    4  A    between atoms: C_24  and  O_25 
REMARK    5  A    between atoms: C_24  and  O_26 
ROOT
ATOM      1  N           0     138.827 130.765 145.483  0.00  0.00    -0.235 N 
ATOM      2  H           0     138.959 130.070 146.148  0.00  0.00     0.174 HD
ATOM      3  H           0     139.573 131.068 144.944  0.00  0.00     0.174 HD
ATOM      4  C           0     137.645 131.287 145.313  0.00  0.00     0.672 C 
ATOM      5  N           0     136.547 130.885 146.054  0.00  0.00    -0.218 N 
ATOM      6  C           0     135.478 131.850 146.286  0.00  0.00     0.151 C 
ATOM      7  C           0     134.998 132.510 145.008  0.00  0.00     0.180 C 
ATOM      8  N           0     134.130 131.567 144.270  0.00  0.00    -0.216 N 
ATOM      9  C           0     134.421 131.696 142.934  0.00  0.00     0.670 C 
ATOM     10  N           0     133.632 131.307 141.972  0.00  0.00    -0.235 N 
ATOM     11  H           0     132.777 130.899 142.181  0.00  0.00     0.174 HD
ATOM     12  H           0     133.898 131.427 141.047  0.00  0.00     0.174 HD
ATOM     13  C           0     136.109 132.833 144.021  0.00  0.00     0.217 C 
ATOM     14  N           0     135.645 132.283 142.736  0.00  0.00    -0.191 N 
ATOM     15  N           0     137.409 132.273 144.391  0.00  0.00    -0.183 N 
ATOM     16  C           0     138.399 133.038 143.610  0.00  0.00     0.150 C 
ATOM     17  C           0     137.858 134.487 143.618  0.00  0.00     0.093 C 
ATOM     18  C           0     136.338 134.348 143.888  0.00  0.00     0.209 C 
ATOM     19  H           0     136.491 129.983 146.409  0.00  0.00     0.178 HD
ATOM     20  H           0     133.474 130.968 144.659  0.00  0.00     0.178 HD
ATOM     21  H           0     136.124 132.329 141.893  0.00  0.00     0.180 HD
ENDROOT
BRANCH   6  22
ATOM     22  C           0     135.988 132.934 147.237  0.00  0.00     0.208 C 
BRANCH  22  23
ATOM     23  O           0     135.206 132.912 148.460  0.00  0.00    -0.302 OA
BRANCH  23  24
ATOM     24  C           0     134.711 131.748 148.922  0.00  0.00     0.360 C 
ATOM     25  N           0     133.378 131.581 149.039  0.00  0.00    -0.341 N 
ATOM     26  C           0     132.841 130.315 149.542  0.00  0.00     0.151 C 
ATOM     27  H           0     132.776 132.299 148.789  0.00  0.00     0.164 HD
ATOM     28  O           0     135.465 130.848 149.235  0.00  0.00    -0.239 OA
ENDBRANCH  23  24
ENDBRANCH  22  23
ENDBRANCH   6  22
BRANCH  18  29
ATOM     29  O           0     135.587 134.877 142.793  0.00  0.00    -0.362 OA
ATOM     30  H           0     135.027 134.160 142.466  0.00  0.00     0.213 HD
ENDBRANCH  18  29
BRANCH  18  31
ATOM     31  O           0     135.985 135.012 145.103  0.00  0.00    -0.362 OA
ATOM     32  H           0     135.424 134.403 145.602  0.00  0.00     0.213 HD
ENDBRANCH  18  31
TORSDOF 5
ENDMDL
MODEL 7
REMARK VINA RESULT:      -6.6      2.432      6.142
REMARK  5 active torsions:
REMARK  status: ('A' for Active; 'I' for Inactive)
REMARK    1  A    between atoms: C_6  and  C_7 
REMARK    2  A    between atoms: C_7  and  O_8 
REMARK    3  A    between atoms: O_8  and  C_9 
REMARK       I    between atoms: C_9  and  N_10 
REMARK    4  A    between atoms: C_24  and  O_25 
REMARK    5  A    between atoms: C_24  and  O_26 
ROOT
ATOM      1  N           0     133.985 129.076 147.177  0.00  0.00    -0.235 N 
ATOM      2  H           0     133.491 128.551 146.527  0.00  0.00     0.174 HD
ATOM      3  H           0     133.747 129.034 148.116  0.00  0.00     0.174 HD
ATOM      4  C           0     134.971 129.833 146.788  0.00  0.00     0.672 C 
ATOM      5  N           0     135.353 129.923 145.460  0.00  0.00    -0.218 N 
ATOM      6  C           0     135.973 131.162 145.001  0.00  0.00     0.151 C 
ATOM      7  C           0     137.129 131.599 145.880  0.00  0.00     0.180 C 
ATOM      8  N           0     138.314 130.769 145.573  0.00  0.00    -0.216 N 
ATOM      9  C           0     138.945 130.493 146.761  0.00  0.00     0.670 C 
ATOM     10  N           0     140.186 130.107 146.859  0.00  0.00    -0.235 N 
ATOM     11  H           0     140.725 130.000 146.060  0.00  0.00     0.174 HD
ATOM     12  H           0     140.572 129.928 147.730  0.00  0.00     0.174 HD
ATOM     13  C           0     136.899 131.373 147.366  0.00  0.00     0.217 C 
ATOM     14  N           0     138.107 130.673 147.834  0.00  0.00    -0.191 N 
ATOM     15  N           0     135.695 130.597 147.666  0.00  0.00    -0.183 N 
ATOM     16  C           0     135.404 130.865 149.086  0.00  0.00     0.150 C 
ATOM     17  C           0     135.739 132.363 149.271  0.00  0.00     0.093 C 
ATOM     18  C           0     136.733 132.697 148.130  0.00  0.00     0.209 C 
ATOM     19  H           0     135.214 129.180 144.852  0.00  0.00     0.178 HD
ATOM     20  H           0     138.594 130.474 144.693  0.00  0.00     0.178 HD
ATOM     21  H           0     138.282 130.389 148.745  0.00  0.00     0.180 HD
ENDROOT
BRANCH   6  22
ATOM     22  C           0     134.917 132.269 144.991  0.00  0.00     0.208 C 
BRANCH  22  23
ATOM     23  O           0     135.544 133.533 144.649  0.00  0.00    -0.302 OA
BRANCH  23  24
ATOM     24  C           0     134.941 134.372 143.786  0.00  0.00     0.360 C 
ATOM     25  N           0     135.119 135.703 143.903  0.00  0.00    -0.341 N 
ATOM     26  C           0     134.462 136.615 142.964  0.00  0.00     0.151 C 
ATOM     27  H           0     135.683 136.056 144.609  0.00  0.00     0.164 HD
ATOM     28  O           0     134.235 133.930 142.901  0.00  0.00    -0.239 OA
ENDBRANCH  23  24
ENDBRANCH  22  23
ENDBRANCH   6  22
BRANCH  18  29
ATOM     29  O           0     137.985 133.127 148.670  0.00  0.00    -0.362 OA
ATOM     30  H           0     138.589 132.374 148.611  0.00  0.00     0.213 HD
ENDBRANCH  18  29
BRANCH  18  31
ATOM     31  O           0     136.189 133.701 147.272  0.00  0.00    -0.362 OA
ATOM     32  H           0     135.756 134.352 147.842  0.00  0.00     0.213 HD
ENDBRANCH  18  31
TORSDOF 5
ENDMDL
MODEL 8
REMARK VINA RESULT:      -6.6      1.992      5.741
REMARK  5 active torsions:
REMARK  status: ('A' for Active; 'I' for Inactive)
REMARK    1  A    between atoms: C_6  and  C_7 
REMARK    2  A    between atoms: C_7  and  O_8 
REMARK    3  A    between atoms: O_8  and  C_9 
REMARK       I    between atoms: C_9  and  N_10 
REMARK    4  A    between atoms: C_24  and  O_25 
REMARK    5  A    between atoms: C_24  and  O_26 
ROOT
ATOM      1  N           0     136.341 134.831 148.155  0.00  0.00    -0.235 N 
ATOM      2  H           0     135.550 135.393 148.110  0.00  0.00     0.174 HD
ATOM      3  H           0     137.017 135.000 148.829  0.00  0.00     0.174 HD
ATOM      4  C           0     136.489 133.847 147.315  0.00  0.00     0.672 C 
ATOM      5  N           0     135.549 133.562 146.339  0.00  0.00    -0.218 N 
ATOM      6  C           0     136.003 132.930 145.104  0.00  0.00     0.151 C 
ATOM      7  C           0     136.846 131.695 145.356  0.00  0.00     0.180 C 
ATOM      8  N           0     135.962 130.570 145.731  0.00  0.00    -0.216 N 
ATOM      9  C           0     136.591 129.864 146.727  0.00  0.00     0.670 C 
ATOM     10  N           0     136.299 128.636 147.049  0.00  0.00    -0.235 N 
ATOM     11  H           0     135.598 128.163 146.574  0.00  0.00     0.174 HD
ATOM     12  H           0     136.782 128.193 147.764  0.00  0.00     0.174 HD
ATOM     13  C           0     137.797 131.822 146.536  0.00  0.00     0.217 C 
ATOM     14  N           0     137.565 130.611 147.341  0.00  0.00    -0.191 N 
ATOM     15  N           0     137.589 133.030 147.335  0.00  0.00    -0.183 N 
ATOM     16  C           0     138.832 133.203 148.109  0.00  0.00     0.150 C 
ATOM     17  C           0     139.955 132.795 147.128  0.00  0.00     0.093 C 
ATOM     18  C           0     139.267 131.877 146.086  0.00  0.00     0.209 C 
ATOM     19  H           0     134.612 133.777 146.474  0.00  0.00     0.178 HD
ATOM     20  H           0     135.096 130.369 145.344  0.00  0.00     0.178 HD
ATOM     21  H           0     138.024 130.380 148.164  0.00  0.00     0.180 HD
ENDROOT
BRANCH   6  22
ATOM     22  C           0     136.833 133.939 144.309  0.00  0.00     0.208 C 
BRANCH  22  23
ATOM     23  O           0     136.916 133.511 142.924  0.00  0.00    -0.302 OA
BRANCH  23  24
ATOM     24  C           0     135.790 133.295 142.216  0.00  0.00     0.360 C 
ATOM     25  N           0     134.904 134.294 142.039  0.00  0.00    -0.341 N 
ATOM     26  C           0     133.680 134.058 141.270  0.00  0.00     0.151 C 
ATOM     27  H           0     135.076 135.169 142.421  0.00  0.00     0.164 HD
ATOM     28  O           0     135.575 132.199 141.738  0.00  0.00    -0.239 OA
ENDBRANCH  23  24
ENDBRANCH  22  23
ENDBRANCH   6  22
BRANCH  18  29
ATOM     29  O           0     139.850 130.572 146.110  0.00  0.00    -0.362 OA
ATOM     30  H           0     140.692 130.634 145.641  0.00  0.00     0.213 HD
ENDBRANCH  18  29
BRANCH  18  31
ATOM     31  O           0     139.366 132.444 144.779  0.00  0.00    -0.362 OA
ATOM     32  H           0     139.111 133.373 144.856  0.00  0.00     0.213 HD
ENDBRANCH  18  31
TORSDOF 5
ENDMDL
MODEL 9
REMARK VINA RESULT:      -6.6      3.756      5.841
REMARK  5 active torsions:
REMARK  status: ('A' for Active; 'I' for Inactive)
REMARK    1  A    between atoms: C_6  and  C_7 
REMARK    2  A    between atoms: C_7  and  O_8 
REMARK    3  A    between atoms: O_8  and  C_9 
REMARK       I    between atoms: C_9  and  N_10 
REMARK    4  A    between atoms: C_24  and  O_25 
REMARK    5  A    between atoms: C_24  and  O_26 
ROOT
ATOM      1  N           0     139.149 129.595 147.784  0.00  0.00    -0.235 N 
ATOM      2  H           0     139.239 128.644 147.956  0.00  0.00     0.174 HD
ATOM      3  H           0     139.878 130.197 147.997  0.00  0.00     0.174 HD
ATOM      4  C           0     138.051 130.060 147.260  0.00  0.00     0.672 C 
ATOM      5  N           0     136.984 129.241 146.933  0.00  0.00    -0.218 N 
ATOM      6  C           0     135.641 129.811 146.958  0.00  0.00     0.151 C 
ATOM      7  C           0     135.537 131.100 146.165  0.00  0.00     0.180 C 
ATOM      8  N           0     135.489 130.781 144.722  0.00  0.00    -0.216 N 
ATOM      9  C           0     136.245 131.720 144.066  0.00  0.00     0.670 C 
ATOM     10  N           0     136.147 131.978 142.792  0.00  0.00    -0.235 N 
ATOM     11  H           0     135.509 131.493 142.246  0.00  0.00     0.174 HD
ATOM     12  H           0     136.712 132.655 142.388  0.00  0.00     0.174 HD
ATOM     13  C           0     136.748 132.010 146.298  0.00  0.00     0.217 C 
ATOM     14  N           0     137.117 132.354 144.915  0.00  0.00    -0.191 N 
ATOM     15  N           0     137.874 131.395 147.003  0.00  0.00    -0.183 N 
ATOM     16  C           0     138.731 132.519 147.421  0.00  0.00     0.150 C 
ATOM     17  C           0     137.737 133.629 147.834  0.00  0.00     0.093 C 
ATOM     18  C           0     136.422 133.289 147.086  0.00  0.00     0.209 C 
ATOM     19  H           0     137.127 128.312 146.692  0.00  0.00     0.178 HD
ATOM     20  H           0     135.010 130.042 144.314  0.00  0.00     0.178 HD
ATOM     21  H           0     137.849 132.932 144.650  0.00  0.00     0.180 HD
ENDROOT
BRANCH   6  22
ATOM     22  C           0     135.251 130.093 148.410  0.00  0.00     0.208 C 
BRANCH  22  23
ATOM     23  O           0     133.892 129.638 148.643  0.00  0.00    -0.302 OA
BRANCH  23  24
ATOM     24  C           0     133.561 128.355 148.402  0.00  0.00     0.360 C 
ATOM     25  N           0     132.539 128.066 147.573  0.00  0.00    -0.341 N 
ATOM     26  C           0     132.179 126.671 147.312  0.00  0.00     0.151 C 
ATOM     27  H           0     132.041 128.783 147.150  0.00  0.00     0.164 HD
ATOM     28  O           0     134.184 127.457 148.933  0.00  0.00    -0.239 OA
ENDBRANCH  23  24
ENDBRANCH  22  23
ENDBRANCH   6  22
BRANCH  18  29
ATOM     29  O           0     136.066 134.351 146.198  0.00  0.00    -0.362 OA
ATOM     30  H           0     136.018 133.969 145.311  0.00  0.00     0.213 HD
ENDBRANCH  18  29
BRANCH  18  31
ATOM     31  O           0     135.367 133.044 148.018  0.00  0.00    -0.362 OA
ATOM     32  H           0     134.630 133.616 147.764  0.00  0.00     0.213 HD
ENDBRANCH  18  31
TORSDOF 5
ENDMDL
