# created with PyMOL 2.3.4
@<TRIPOS>MOLECULE
ligand_out_0001
32 34 1                 
SMALL
USER_CHARGES
@<TRIPOS>ATOM
1	   N	134.930	132.111	146.752	N.3	1	UNK0	-0.235	
2	   N	136.428	133.813	146.124	N.3	1	UNK0	-0.218	
3	   N	136.211	135.837	143.812	N.3	1	UNK0	-0.216	
4	   N	134.418	136.874	142.670	N.3	1	UNK0	-0.235	
5	   N	134.523	134.538	143.022	N.3	1	UNK0	-0.191	
6	   N	135.144	132.732	144.506	N.3	1	UNK0	-0.183	
7	   N	139.970	130.630	146.814	N.pl3	1	UNK0	-0.341	
8	   C	135.474	132.853	145.831	C.3	1	UNK0	0.672	
9	   C	137.413	134.146	145.100	C.3	1	UNK0	0.151	
10	   C	136.777	134.473	143.762	C.3	1	UNK0	0.180	
11	   C	135.014	135.814	143.139	C.3	1	UNK0	0.670	
12	   C	135.585	133.595	143.410	C.3	1	UNK0	0.217	
13	   C	134.328	131.682	143.869	C.3	1	UNK0	0.150	
14	   C	135.063	131.374	142.544	C.3	1	UNK0	0.093	
15	   C	135.896	132.646	142.241	C.3	1	UNK0	0.209	
16	   C	138.359	132.958	144.919	C.2	1	UNK0	0.208	
17	   C	140.071	131.833	146.215	C.2	1	UNK0	0.360	
18	   C	141.125	129.730	146.850	C.3	1	UNK0	0.151	
19	   O	139.009	132.661	146.182	O.2	1	UNK0	-0.302	
20	   O	141.120	132.171	145.705	O.co2	1	UNK0	-0.239	
21	   O	135.485	133.225	141.000	O.2	1	UNK0	-0.362	
22	   O	137.289	132.335	142.210	O.2	1	UNK0	-0.362	
23	   H	135.190	132.221	147.681	 H	1	UNK0	0.174	
24	   H	134.262	131.450	146.511	 H	1	UNK0	0.174	
25	   H	134.820	137.749	142.787	 H	1	UNK0	0.174	
26	   H	133.572	136.788	142.204	 H	1	UNK0	0.174	
27	   H	136.440	134.253	146.989	 H	1	UNK0	0.178	
28	   H	136.613	136.609	144.242	 H	1	UNK0	0.178	
29	   H	133.630	134.298	142.731	 H	1	UNK0	0.180	
30	   H	139.132	130.360	147.222	 H	1	UNK0	0.164	
31	   H	136.220	133.113	140.382	 H	1	UNK0	0.213	
32	   H	137.565	132.377	141.284	 H	1	UNK0	0.213	
@<TRIPOS>BOND
1 1 8 1
2 1 23 1
3 1 24 1
4 2 9 1
5 2 27 1
6 3 11 1
7 3 28 1
8 4 25 1
9 4 26 1
10 5 29 1
11 6 13 1
12 7 18 1
13 7 30 1
14 2 8 1
15 6 8 1
16 9 10 1
17 9 16 1
18 3 10 1
19 10 12 1
20 4 11 1
21 5 11 1
22 5 12 1
23 6 12 1
24 12 15 1
25 13 14 1
26 14 15 1
27 15 21 2
28 15 22 2
29 16 19 2
30 7 17 1
31 17 20 2
32 17 19 2
33 21 31 1
34 22 32 1
@<TRIPOS>SUBSTRUCTURE
1	UNK0	1	GROUP	1 ****	UNK
