# created with PyMOL 2.3.4
@<TRIPOS>MOLECULE
ligand_out_0001
32 34 1                 
SMALL
USER_CHARGES
@<TRIPOS>ATOM
1	   N	134.931	132.277	146.628	N.3	1	UNK0	-0.235	
2	   N	136.504	133.820	145.801	N.3	1	UNK0	-0.218	
3	   N	136.168	135.946	143.598	N.3	1	UNK0	-0.216	
4	   N	134.354	137.228	142.784	N.3	1	UNK0	-0.235	
5	   N	134.233	134.883	143.065	N.3	1	UNK0	-0.191	
6	   N	134.860	132.959	144.389	N.3	1	UNK0	-0.183	
7	   N	138.020	130.553	145.916	N.pl3	1	UNK0	-0.346	
8	   C	135.408	132.989	145.645	C.3	1	UNK0	0.672	
9	   C	137.347	134.079	144.638	C.3	1	UNK0	0.151	
10	   C	136.551	134.529	143.428	C.3	1	UNK0	0.180	
11	   C	134.886	136.089	143.128	C.3	1	UNK0	0.670	
12	   C	135.223	133.810	143.256	C.3	1	UNK0	0.217	
13	   C	133.833	132.036	143.872	C.3	1	UNK0	0.150	
14	   C	134.308	131.700	142.437	C.3	1	UNK0	0.093	
15	   C	135.227	132.879	142.031	C.3	1	UNK0	0.209	
16	   C	138.103	132.798	144.282	C.2	1	UNK0	0.208	
17	   C	139.119	131.334	145.925	C.2	1	UNK0	0.358	
18	   O	139.102	132.526	145.299	O.2	1	UNK0	-0.302	
19	   O	140.124	130.963	146.499	O.co2	1	UNK0	-0.239	
20	   O	134.698	133.551	140.886	O.2	1	UNK0	-0.362	
21	   O	136.552	132.411	141.768	O.2	1	UNK0	-0.362	
22	   H	135.346	132.318	147.503	 H	1	UNK0	0.174	
23	   H	134.159	131.707	146.483	 H	1	UNK0	0.174	
24	   H	134.872	138.045	142.853	 H	1	UNK0	0.174	
25	   H	133.441	137.258	142.459	 H	1	UNK0	0.174	
26	   H	136.706	134.220	146.661	 H	1	UNK0	0.178	
27	   H	136.722	136.649	143.974	 H	1	UNK0	0.178	
28	   H	133.282	134.759	142.917	 H	1	UNK0	0.180	
29	   H	137.218	130.848	145.458	 H	1	UNK0	0.161	
30	   H	138.032	129.694	146.368	 H	1	UNK0	0.161	
31	   H	135.410	134.102	140.532	 H	1	UNK0	0.213	
32	   H	137.154	132.989	142.256	 H	1	UNK0	0.213	
@<TRIPOS>BOND
1 1 8 1
2 1 22 1
3 1 23 1
4 2 9 1
5 2 26 1
6 3 11 1
7 3 27 1
8 4 24 1
9 4 25 1
10 5 28 1
11 6 13 1
12 7 29 1
13 7 30 1
14 2 8 1
15 6 8 1
16 9 10 1
17 9 16 1
18 3 10 1
19 10 12 1
20 4 11 1
21 5 11 1
22 5 12 1
23 6 12 1
24 12 15 1
25 13 14 1
26 14 15 1
27 15 20 2
28 15 21 2
29 16 18 2
30 7 17 1
31 17 19 2
32 17 18 2
33 20 31 1
34 21 32 1
@<TRIPOS>SUBSTRUCTURE
1	UNK0	1	GROUP	1 ****	UNK
