MODEL 1
REMARK VINA RESULT:      -7.4      0.000      0.000
REMARK  5 active torsions:
REMARK  status: ('A' for Active; 'I' for Inactive)
REMARK    1  A    between atoms: C_6  and  C_7 
REMARK    2  A    between atoms: C_7  and  O_8 
REMARK    3  A    between atoms: O_8  and  C_9 
REMARK       I    between atoms: C_9  and  N_10 
REMARK    4  A    between atoms: C_23  and  O_24 
REMARK    5  A    between atoms: C_23  and  O_25 
ROOT
ATOM      1  N           0     134.931 132.277 146.628  0.00  0.00    -0.235 N 
ATOM      2  H           0     135.346 132.318 147.503  0.00  0.00     0.174 HD
ATOM      3  H           0     134.159 131.707 146.483  0.00  0.00     0.174 HD
ATOM      4  C           0     135.408 132.989 145.645  0.00  0.00     0.672 C 
ATOM      5  N           0     136.504 133.820 145.801  0.00  0.00    -0.218 N 
ATOM      6  C           0     137.347 134.079 144.638  0.00  0.00     0.151 C 
ATOM      7  C           0     136.551 134.529 143.428  0.00  0.00     0.180 C 
ATOM      8  N           0     136.168 135.946 143.598  0.00  0.00    -0.216 N 
ATOM      9  C           0     134.886 136.089 143.128  0.00  0.00     0.670 C 
ATOM     10  N           0     134.354 137.228 142.784  0.00  0.00    -0.235 N 
ATOM     11  H           0     134.872 138.045 142.853  0.00  0.00     0.174 HD
ATOM     12  H           0     133.441 137.258 142.459  0.00  0.00     0.174 HD
ATOM     13  C           0     135.223 133.810 143.256  0.00  0.00     0.217 C 
ATOM     14  N           0     134.233 134.883 143.065  0.00  0.00    -0.191 N 
ATOM     15  N           0     134.860 132.959 144.389  0.00  0.00    -0.183 N 
ATOM     16  C           0     133.833 132.036 143.872  0.00  0.00     0.150 C 
ATOM     17  C           0     134.308 131.700 142.437  0.00  0.00     0.093 C 
ATOM     18  C           0     135.227 132.879 142.031  0.00  0.00     0.209 C 
ATOM     19  H           0     136.706 134.220 146.661  0.00  0.00     0.178 HD
ATOM     20  H           0     136.722 136.649 143.974  0.00  0.00     0.178 HD
ATOM     21  H           0     133.282 134.759 142.917  0.00  0.00     0.180 HD
ENDROOT
BRANCH   6  22
ATOM     22  C           0     138.103 132.798 144.282  0.00  0.00     0.208 C 
BRANCH  22  23
ATOM     23  O           0     139.102 132.526 145.299  0.00  0.00    -0.302 OA
BRANCH  23  24
ATOM     24  C           0     139.119 131.334 145.925  0.00  0.00     0.358 C 
ATOM     25  N           0     138.020 130.553 145.916  0.00  0.00    -0.346 N 
ATOM     26  H           0     137.218 130.848 145.458  0.00  0.00     0.161 HD
ATOM     27  H           0     138.032 129.694 146.368  0.00  0.00     0.161 HD
ATOM     28  O           0     140.124 130.963 146.499  0.00  0.00    -0.239 OA
ENDBRANCH  23  24
ENDBRANCH  22  23
ENDBRANCH   6  22
BRANCH  18  29
ATOM     29  O           0     134.698 133.551 140.886  0.00  0.00    -0.362 OA
ATOM     30  H           0     135.410 134.102 140.532  0.00  0.00     0.213 HD
ENDBRANCH  18  29
BRANCH  18  31
ATOM     31  O           0     136.552 132.411 141.768  0.00  0.00    -0.362 OA
ATOM     32  H           0     137.154 132.989 142.256  0.00  0.00     0.213 HD
ENDBRANCH  18  31
TORSDOF 5
ENDMDL
MODEL 2
REMARK VINA RESULT:      -6.8      8.099     10.200
REMARK  5 active torsions:
REMARK  status: ('A' for Active; 'I' for Inactive)
REMARK    1  A    between atoms: C_6  and  C_7 
REMARK    2  A    between atoms: C_7  and  O_8 
REMARK    3  A    between atoms: O_8  and  C_9 
REMARK       I    between atoms: C_9  and  N_10 
REMARK    4  A    between atoms: C_23  and  O_24 
REMARK    5  A    between atoms: C_23  and  O_25 
ROOT
ATOM      1  N           0     131.419 132.187 134.970  0.00  0.00    -0.235 N 
ATOM      2  H           0     130.834 131.840 135.662  0.00  0.00     0.174 HD
ATOM      3  H           0     131.790 131.587 134.304  0.00  0.00     0.174 HD
ATOM      4  C           0     131.703 133.458 134.933  0.00  0.00     0.672 C 
ATOM      5  N           0     131.195 134.355 135.857  0.00  0.00    -0.218 N 
ATOM      6  C           0     131.976 135.549 136.165  0.00  0.00     0.151 C 
ATOM      7  C           0     132.401 136.305 134.921  0.00  0.00     0.180 C 
ATOM      8  N           0     131.248 137.067 134.397  0.00  0.00    -0.216 N 
ATOM      9  C           0     131.282 136.981 133.027  0.00  0.00     0.670 C 
ATOM     10  N           0     130.661 137.800 132.226  0.00  0.00    -0.235 N 
ATOM     11  H           0     130.133 138.528 132.591  0.00  0.00     0.174 HD
ATOM     12  H           0     130.728 137.683 131.265  0.00  0.00     0.174 HD
ATOM     13  C           0     132.808 135.412 133.759  0.00  0.00     0.217 C 
ATOM     14  N           0     132.051 135.925 132.605  0.00  0.00    -0.191 N 
ATOM     15  N           0     132.529 133.993 133.979  0.00  0.00    -0.183 N 
ATOM     16  C           0     133.368 133.275 133.002  0.00  0.00     0.150 C 
ATOM     17  C           0     134.692 134.076 132.972  0.00  0.00     0.093 C 
ATOM     18  C           0     134.317 135.494 133.473  0.00  0.00     0.209 C 
ATOM     19  H           0     130.342 134.194 136.288  0.00  0.00     0.178 HD
ATOM     20  H           0     130.586 137.541 134.925  0.00  0.00     0.178 HD
ATOM     21  H           0     132.092 135.578 131.700  0.00  0.00     0.180 HD
ENDROOT
BRANCH   6  22
ATOM     22  C           0     133.228 135.133 136.941  0.00  0.00     0.208 C 
BRANCH  22  23
ATOM     23  O           0     132.842 134.345 138.096  0.00  0.00    -0.302 OA
BRANCH  23  24
ATOM     24  C           0     133.027 134.834 139.338  0.00  0.00     0.358 C 
ATOM     25  N           0     133.522 136.076 139.506  0.00  0.00    -0.346 N 
ATOM     26  H           0     133.744 136.619 138.733  0.00  0.00     0.161 HD
ATOM     27  H           0     133.656 136.428 140.400  0.00  0.00     0.161 HD
ATOM     28  O           0     132.749 134.154 140.306  0.00  0.00    -0.239 OA
ENDBRANCH  23  24
ENDBRANCH  22  23
ENDBRANCH   6  22
BRANCH  18  29
ATOM     29  O           0     134.586 136.466 132.461  0.00  0.00    -0.362 OA
ATOM     30  H           0     134.475 136.020 131.609  0.00  0.00     0.213 HD
ENDBRANCH  18  29
BRANCH  18  31
ATOM     31  O           0     135.034 135.806 134.669  0.00  0.00    -0.362 OA
ATOM     32  H           0     135.952 135.965 134.411  0.00  0.00     0.213 HD
ENDBRANCH  18  31
TORSDOF 5
ENDMDL
MODEL 3
REMARK VINA RESULT:      -6.6      2.239      5.459
REMARK  5 active torsions:
REMARK  status: ('A' for Active; 'I' for Inactive)
REMARK    1  A    between atoms: C_6  and  C_7 
REMARK    2  A    between atoms: C_7  and  O_8 
REMARK    3  A    between atoms: O_8  and  C_9 
REMARK       I    between atoms: C_9  and  N_10 
REMARK    4  A    between atoms: C_23  and  O_24 
REMARK    5  A    between atoms: C_23  and  O_25 
ROOT
ATOM      1  N           0     134.895 131.155 142.775  0.00  0.00    -0.235 N 
ATOM      2  H           0     134.975 131.456 141.857  0.00  0.00     0.174 HD
ATOM      3  H           0     134.202 130.520 143.018  0.00  0.00     0.174 HD
ATOM      4  C           0     135.720 131.598 143.682  0.00  0.00     0.672 C 
ATOM      5  N           0     136.727 132.500 143.384  0.00  0.00    -0.218 N 
ATOM      6  C           0     137.180 133.403 144.437  0.00  0.00     0.151 C 
ATOM      7  C           0     137.528 132.676 145.721  0.00  0.00     0.180 C 
ATOM      8  N           0     138.846 132.024 145.568  0.00  0.00    -0.216 N 
ATOM      9  C           0     138.775 130.797 146.180  0.00  0.00     0.670 C 
ATOM     10  N           0     139.813 130.106 146.561  0.00  0.00    -0.235 N 
ATOM     11  H           0     140.706 130.455 146.416  0.00  0.00     0.174 HD
ATOM     12  H           0     139.691 129.244 146.989  0.00  0.00     0.174 HD
ATOM     13  C           0     136.590 131.529 146.060  0.00  0.00     0.217 C 
ATOM     14  N           0     137.475 130.386 146.342  0.00  0.00    -0.191 N 
ATOM     15  N           0     135.643 131.206 144.993  0.00  0.00    -0.183 N 
ATOM     16  C           0     134.572 130.428 145.643  0.00  0.00     0.150 C 
ATOM     17  C           0     134.385 131.111 147.020  0.00  0.00     0.093 C 
ATOM     18  C           0     135.726 131.838 147.294  0.00  0.00     0.209 C 
ATOM     19  H           0     137.122 132.529 142.499  0.00  0.00     0.178 HD
ATOM     20  H           0     139.621 132.395 145.118  0.00  0.00     0.178 HD
ATOM     21  H           0     137.188 129.497 146.601  0.00  0.00     0.180 HD
ENDROOT
BRANCH   6  22
ATOM     22  C           0     136.071 134.416 144.729  0.00  0.00     0.208 C 
BRANCH  22  23
ATOM     23  O           0     135.932 135.321 143.603  0.00  0.00    -0.302 OA
BRANCH  23  24
ATOM     24  C           0     134.759 135.407 142.948  0.00  0.00     0.358 C 
ATOM     25  N           0     134.340 136.595 142.470  0.00  0.00    -0.346 N 
ATOM     26  H           0     134.883 137.389 142.597  0.00  0.00     0.161 HD
ATOM     27  H           0     133.494 136.658 141.998  0.00  0.00     0.161 HD
ATOM     28  O           0     134.079 134.413 142.788  0.00  0.00    -0.239 OA
ENDBRANCH  23  24
ENDBRANCH  22  23
ENDBRANCH   6  22
BRANCH  18  29
ATOM     29  O           0     136.337 131.324 148.478  0.00  0.00    -0.362 OA
ATOM     30  H           0     136.649 130.432 148.268  0.00  0.00     0.213 HD
ENDBRANCH  18  29
BRANCH  18  31
ATOM     31  O           0     135.514 133.246 147.412  0.00  0.00    -0.362 OA
ATOM     32  H           0     136.349 133.630 147.713  0.00  0.00     0.213 HD
ENDBRANCH  18  31
TORSDOF 5
ENDMDL
MODEL 4
REMARK VINA RESULT:      -6.4      2.654      4.606
REMARK  5 active torsions:
REMARK  status: ('A' for Active; 'I' for Inactive)
REMARK    1  A    between atoms: C_6  and  C_7 
REMARK    2  A    between atoms: C_7  and  O_8 
REMARK    3  A    between atoms: O_8  and  C_9 
REMARK       I    between atoms: C_9  and  N_10 
REMARK    4  A    between atoms: C_23  and  O_24 
REMARK    5  A    between atoms: C_23  and  O_25 
ROOT
ATOM      1  N           0     136.236 134.576 148.358  0.00  0.00    -0.235 N 
ATOM      2  H           0     136.325 135.528 148.195  0.00  0.00     0.174 HD
ATOM      3  H           0     136.261 134.236 149.266  0.00  0.00     0.174 HD
ATOM      4  C           0     136.078 133.755 147.359  0.00  0.00     0.672 C 
ATOM      5  N           0     136.030 134.191 146.046  0.00  0.00    -0.218 N 
ATOM      6  C           0     136.473 133.278 144.997  0.00  0.00     0.151 C 
ATOM      7  C           0     135.813 131.916 145.091  0.00  0.00     0.180 C 
ATOM      8  N           0     134.432 132.008 144.573  0.00  0.00    -0.216 N 
ATOM      9  C           0     133.633 131.237 145.382  0.00  0.00     0.670 C 
ATOM     10  N           0     132.458 130.790 145.040  0.00  0.00    -0.235 N 
ATOM     11  H           0     132.096 130.998 144.164  0.00  0.00     0.174 HD
ATOM     12  H           0     131.946 130.248 145.661  0.00  0.00     0.174 HD
ATOM     13  C           0     135.638 131.408 146.513  0.00  0.00     0.217 C 
ATOM     14  N           0     134.227 130.994 146.596  0.00  0.00    -0.191 N 
ATOM     15  N           0     135.953 132.402 147.539  0.00  0.00    -0.183 N 
ATOM     16  C           0     136.163 131.631 148.778  0.00  0.00     0.150 C 
ATOM     17  C           0     136.905 130.354 148.313  0.00  0.00     0.093 C 
ATOM     18  C           0     136.552 130.207 146.811  0.00  0.00     0.209 C 
ATOM     19  H           0     135.710 135.081 145.829  0.00  0.00     0.178 HD
ATOM     20  H           0     134.141 132.520 143.802  0.00  0.00     0.178 HD
ATOM     21  H           0     133.792 130.613 147.374  0.00  0.00     0.180 HD
ENDROOT
BRANCH   6  22
ATOM     22  C           0     137.988 133.100 145.104  0.00  0.00     0.208 C 
BRANCH  22  23
ATOM     23  O           0     138.579 133.157 143.780  0.00  0.00    -0.302 OA
BRANCH  23  24
ATOM     24  C           0     138.196 134.113 142.912  0.00  0.00     0.358 C 
ATOM     25  N           0     137.252 133.845 141.987  0.00  0.00    -0.346 N 
ATOM     26  H           0     136.849 132.964 141.947  0.00  0.00     0.161 HD
ATOM     27  H           0     136.977 134.534 141.362  0.00  0.00     0.161 HD
ATOM     28  O           0     138.700 135.217 142.963  0.00  0.00    -0.239 OA
ENDBRANCH  23  24
ENDBRANCH  22  23
ENDBRANCH   6  22
BRANCH  18  29
ATOM     29  O           0     135.862 128.978 146.580  0.00  0.00    -0.362 OA
ATOM     30  H           0     136.533 128.317 146.360  0.00  0.00     0.213 HD
ENDBRANCH  18  29
BRANCH  18  31
ATOM     31  O           0     137.736 130.274 146.013  0.00  0.00    -0.362 OA
ATOM     32  H           0     137.458 130.169 145.092  0.00  0.00     0.213 HD
ENDBRANCH  18  31
TORSDOF 5
ENDMDL
MODEL 5
REMARK VINA RESULT:      -6.4      4.679      6.744
REMARK  5 active torsions:
REMARK  status: ('A' for Active; 'I' for Inactive)
REMARK    1  A    between atoms: C_6  and  C_7 
REMARK    2  A    between atoms: C_7  and  O_8 
REMARK    3  A    between atoms: O_8  and  C_9 
REMARK       I    between atoms: C_9  and  N_10 
REMARK    4  A    between atoms: C_23  and  O_24 
REMARK    5  A    between atoms: C_23  and  O_25 
ROOT
ATOM      1  N           0     133.070 131.622 144.271  0.00  0.00    -0.235 N 
ATOM      2  H           0     133.779 131.854 143.652  0.00  0.00     0.174 HD
ATOM      3  H           0     132.166 131.938 144.113  0.00  0.00     0.174 HD
ATOM      4  C           0     133.329 130.884 145.313  0.00  0.00     0.672 C 
ATOM      5  N           0     134.600 130.405 145.580  0.00  0.00    -0.218 N 
ATOM      6  C           0     134.968 130.156 146.971  0.00  0.00     0.151 C 
ATOM      7  C           0     133.951 129.297 147.698  0.00  0.00     0.180 C 
ATOM      8  N           0     134.124 127.888 147.290  0.00  0.00    -0.216 N 
ATOM      9  C           0     132.872 127.336 147.164  0.00  0.00     0.670 C 
ATOM     10  N           0     132.631 126.055 147.175  0.00  0.00    -0.235 N 
ATOM     11  H           0     133.362 125.426 147.277  0.00  0.00     0.174 HD
ATOM     12  H           0     131.722 125.732 147.082  0.00  0.00     0.174 HD
ATOM     13  C           0     132.507 129.607 147.341  0.00  0.00     0.217 C 
ATOM     14  N           0     131.906 128.301 147.025  0.00  0.00    -0.191 N 
ATOM     15  N           0     132.362 130.535 146.219  0.00  0.00    -0.183 N 
ATOM     16  C           0     130.983 131.050 146.314  0.00  0.00     0.150 C 
ATOM     17  C           0     130.742 131.220 147.834  0.00  0.00     0.093 C 
ATOM     18  C           0     131.752 130.260 148.512  0.00  0.00     0.209 C 
ATOM     19  H           0     135.230 130.240 144.861  0.00  0.00     0.178 HD
ATOM     20  H           0     134.968 127.433 147.138  0.00  0.00     0.178 HD
ATOM     21  H           0     130.984 128.148 146.766  0.00  0.00     0.180 HD
ENDROOT
BRANCH   6  22
ATOM     22  C           0     135.091 131.496 147.697  0.00  0.00     0.208 C 
BRANCH  22  23
ATOM     23  O           0     136.123 132.297 147.064  0.00  0.00    -0.302 OA
BRANCH  23  24
ATOM     24  C           0     135.971 133.631 146.959  0.00  0.00     0.358 C 
ATOM     25  N           0     135.881 134.205 145.743  0.00  0.00    -0.346 N 
ATOM     26  H           0     135.925 133.657 144.943  0.00  0.00     0.161 HD
ATOM     27  H           0     135.772 135.166 145.667  0.00  0.00     0.161 HD
ATOM     28  O           0     135.916 134.317 147.960  0.00  0.00    -0.239 OA
ENDBRANCH  23  24
ENDBRANCH  22  23
ENDBRANCH   6  22
BRANCH  18  29
ATOM     29  O           0     131.062 129.272 149.279  0.00  0.00    -0.362 OA
ATOM     30  H           0     131.120 129.546 150.205  0.00  0.00     0.213 HD
ENDBRANCH  18  29
BRANCH  18  31
ATOM     31  O           0     132.658 130.993 149.340  0.00  0.00    -0.362 OA
ATOM     32  H           0     133.541 130.638 149.169  0.00  0.00     0.213 HD
ENDBRANCH  18  31
TORSDOF 5
ENDMDL
MODEL 6
REMARK VINA RESULT:      -6.3      9.853     11.521
REMARK  5 active torsions:
REMARK  status: ('A' for Active; 'I' for Inactive)
REMARK    1  A    between atoms: C_6  and  C_7 
REMARK    2  A    between atoms: C_7  and  O_8 
REMARK    3  A    between atoms: O_8  and  C_9 
REMARK       I    between atoms: C_9  and  N_10 
REMARK    4  A    between atoms: C_23  and  O_24 
REMARK    5  A    between atoms: C_23  and  O_25 
ROOT
ATOM      1  N           0     134.500 133.463 132.334  0.00  0.00    -0.235 N 
ATOM      2  H           0     134.519 132.828 131.601  0.00  0.00     0.174 HD
ATOM      3  H           0     135.330 133.826 132.682  0.00  0.00     0.174 HD
ATOM      4  C           0     133.361 133.832 132.848  0.00  0.00     0.672 C 
ATOM      5  N           0     132.151 133.347 132.382  0.00  0.00    -0.218 N 
ATOM      6  C           0     131.030 133.273 133.315  0.00  0.00     0.151 C 
ATOM      7  C           0     130.793 134.579 134.047  0.00  0.00     0.180 C 
ATOM      8  N           0     130.112 135.528 133.141  0.00  0.00    -0.216 N 
ATOM      9  C           0     130.655 136.771 133.358  0.00  0.00     0.670 C 
ATOM     10  N           0     130.079 137.891 133.020  0.00  0.00    -0.235 N 
ATOM     11  H           0     129.212 137.878 132.586  0.00  0.00     0.174 HD
ATOM     12  H           0     130.518 138.736 133.203  0.00  0.00     0.174 HD
ATOM     13  C           0     132.066 135.307 134.449  0.00  0.00     0.217 C 
ATOM     14  N           0     131.878 136.688 133.975  0.00  0.00    -0.191 N 
ATOM     15  N           0     133.283 134.721 133.887  0.00  0.00    -0.183 N 
ATOM     16  C           0     134.386 135.246 134.714  0.00  0.00     0.150 C 
ATOM     17  C           0     133.813 135.259 136.152  0.00  0.00     0.093 C 
ATOM     18  C           0     132.275 135.302 135.973  0.00  0.00     0.209 C 
ATOM     19  H           0     132.050 133.064 131.461  0.00  0.00     0.178 HD
ATOM     20  H           0     129.409 135.312 132.508  0.00  0.00     0.178 HD
ATOM     21  H           0     132.510 137.416 134.082  0.00  0.00     0.180 HD
ENDROOT
BRANCH   6  22
ATOM     22  C           0     131.315 132.176 134.343  0.00  0.00     0.208 C 
BRANCH  22  23
ATOM     23  O           0     131.118 130.875 133.732  0.00  0.00    -0.302 OA
BRANCH  23  24
ATOM     24  C           0     132.173 130.070 133.505  0.00  0.00     0.358 C 
ATOM     25  N           0     132.010 128.732 133.497  0.00  0.00    -0.346 N 
ATOM     26  H           0     131.132 128.349 133.653  0.00  0.00     0.161 HD
ATOM     27  H           0     132.770 128.151 133.334  0.00  0.00     0.161 HD
ATOM     28  O           0     133.272 130.549 133.309  0.00  0.00    -0.239 OA
ENDBRANCH  23  24
ENDBRANCH  22  23
ENDBRANCH   6  22
BRANCH  18  29
ATOM     29  O           0     131.739 136.490 136.559  0.00  0.00    -0.362 OA
ATOM     30  H           0     130.783 136.468 136.409  0.00  0.00     0.213 HD
ENDBRANCH  18  29
BRANCH  18  31
ATOM     31  O           0     131.673 134.143 136.553  0.00  0.00    -0.362 OA
ATOM     32  H           0     132.214 133.386 136.289  0.00  0.00     0.213 HD
ENDBRANCH  18  31
TORSDOF 5
ENDMDL
MODEL 7
REMARK VINA RESULT:      -6.3      4.123      6.312
REMARK  5 active torsions:
REMARK  status: ('A' for Active; 'I' for Inactive)
REMARK    1  A    between atoms: C_6  and  C_7 
REMARK    2  A    between atoms: C_7  and  O_8 
REMARK    3  A    between atoms: O_8  and  C_9 
REMARK       I    between atoms: C_9  and  N_10 
REMARK    4  A    between atoms: C_23  and  O_24 
REMARK    5  A    between atoms: C_23  and  O_25 
ROOT
ATOM      1  N           0     134.581 132.360 149.442  0.00  0.00    -0.235 N 
ATOM      2  H           0     134.127 132.099 150.258  0.00  0.00     0.174 HD
ATOM      3  H           0     134.594 133.292 149.171  0.00  0.00     0.174 HD
ATOM      4  C           0     135.177 131.460 148.711  0.00  0.00     0.672 C 
ATOM      5  N           0     135.190 130.120 149.057  0.00  0.00    -0.218 N 
ATOM      6  C           0     135.286 129.130 147.988  0.00  0.00     0.151 C 
ATOM      7  C           0     136.433 129.409 147.036  0.00  0.00     0.180 C 
ATOM      8  N           0     137.703 129.000 147.671  0.00  0.00    -0.216 N 
ATOM      9  C           0     138.650 129.942 147.350  0.00  0.00     0.670 C 
ATOM     10  N           0     139.936 129.742 147.420  0.00  0.00    -0.235 N 
ATOM     11  H           0     140.277 128.882 147.714  0.00  0.00     0.174 HD
ATOM     12  H           0     140.551 130.451 147.177  0.00  0.00     0.174 HD
ATOM     13  C           0     136.638 130.882 146.724  0.00  0.00     0.217 C 
ATOM     14  N           0     138.074 131.120 146.945  0.00  0.00    -0.191 N 
ATOM     15  N           0     135.826 131.779 147.546  0.00  0.00    -0.183 N 
ATOM     16  C           0     135.812 133.065 146.825  0.00  0.00     0.150 C 
ATOM     17  C           0     135.720 132.666 145.332  0.00  0.00     0.093 C 
ATOM     18  C           0     136.271 131.219 145.268  0.00  0.00     0.209 C 
ATOM     19  H           0     135.138 129.846 149.985  0.00  0.00     0.178 HD
ATOM     20  H           0     137.843 128.210 148.217  0.00  0.00     0.178 HD
ATOM     21  H           0     138.535 131.965 146.823  0.00  0.00     0.180 HD
ENDROOT
BRANCH   6  22
ATOM     22  C           0     133.977 129.130 147.196  0.00  0.00     0.208 C 
BRANCH  22  23
ATOM     23  O           0     132.927 128.528 147.997  0.00  0.00    -0.302 OA
BRANCH  23  24
ATOM     24  C           0     132.194 127.515 147.496  0.00  0.00     0.358 C 
ATOM     25  N           0     132.801 126.385 147.081  0.00  0.00    -0.346 N 
ATOM     26  H           0     133.766 126.301 147.144  0.00  0.00     0.161 HD
ATOM     27  H           0     132.273 125.656 146.719  0.00  0.00     0.161 HD
ATOM     28  O           0     130.986 127.620 147.418  0.00  0.00    -0.239 OA
ENDBRANCH  23  24
ENDBRANCH  22  23
ENDBRANCH   6  22
BRANCH  18  29
ATOM     29  O           0     137.428 131.164 144.432  0.00  0.00    -0.362 OA
ATOM     30  H           0     137.676 130.231 144.358  0.00  0.00     0.213 HD
ENDBRANCH  18  29
BRANCH  18  31
ATOM     31  O           0     135.266 130.323 144.790  0.00  0.00    -0.362 OA
ATOM     32  H           0     134.593 130.263 145.482  0.00  0.00     0.213 HD
ENDBRANCH  18  31
TORSDOF 5
ENDMDL
MODEL 8
REMARK VINA RESULT:      -6.3      8.673     11.493
REMARK  5 active torsions:
REMARK  status: ('A' for Active; 'I' for Inactive)
REMARK    1  A    between atoms: C_6  and  C_7 
REMARK    2  A    between atoms: C_7  and  O_8 
REMARK    3  A    between atoms: O_8  and  C_9 
REMARK       I    between atoms: C_9  and  N_10 
REMARK    4  A    between atoms: C_23  and  O_24 
REMARK    5  A    between atoms: C_23  and  O_25 
ROOT
ATOM      1  N           0     132.105 137.488 132.526  0.00  0.00    -0.235 N 
ATOM      2  H           0     131.300 138.008 132.382  0.00  0.00     0.174 HD
ATOM      3  H           0     132.906 137.682 132.013  0.00  0.00     0.174 HD
ATOM      4  C           0     132.115 136.531 133.411  0.00  0.00     0.672 C 
ATOM      5  N           0     131.002 136.219 134.172  0.00  0.00    -0.218 N 
ATOM      6  C           0     130.848 134.846 134.643  0.00  0.00     0.151 C 
ATOM      7  C           0     132.089 134.327 135.343  0.00  0.00     0.180 C 
ATOM      8  N           0     132.153 134.898 136.705  0.00  0.00    -0.216 N 
ATOM      9  C           0     133.467 135.202 136.965  0.00  0.00     0.670 C 
ATOM     10  N           0     133.956 135.378 138.160  0.00  0.00    -0.235 N 
ATOM     11  H           0     133.380 135.294 138.936  0.00  0.00     0.174 HD
ATOM     12  H           0     134.895 135.591 138.273  0.00  0.00     0.174 HD
ATOM     13  C           0     133.395 134.765 134.700  0.00  0.00     0.217 C 
ATOM     14  N           0     134.203 135.298 135.810  0.00  0.00    -0.191 N 
ATOM     15  N           0     133.227 135.765 133.646  0.00  0.00    -0.183 N 
ATOM     16  C           0     134.479 135.725 132.868  0.00  0.00     0.150 C 
ATOM     17  C           0     134.850 134.223 132.817  0.00  0.00     0.093 C 
ATOM     18  C           0     134.132 133.589 134.036  0.00  0.00     0.209 C 
ATOM     19  H           0     130.341 136.896 134.386  0.00  0.00     0.178 HD
ATOM     20  H           0     131.404 135.033 137.307  0.00  0.00     0.178 HD
ATOM     21  H           0     135.102 135.654 135.737  0.00  0.00     0.180 HD
ENDROOT
BRANCH   6  22
ATOM     22  C           0     130.544 133.944 133.445  0.00  0.00     0.208 C 
BRANCH  22  23
ATOM     23  O           0     130.423 132.569 133.892  0.00  0.00    -0.302 OA
BRANCH  23  24
ATOM     24  C           0     130.140 131.595 133.006  0.00  0.00     0.358 C 
ATOM     25  N           0     128.858 131.263 132.756  0.00  0.00    -0.346 N 
ATOM     26  H           0     128.138 131.726 133.215  0.00  0.00     0.161 HD
ATOM     27  H           0     128.654 130.561 132.118  0.00  0.00     0.161 HD
ATOM     28  O           0     131.041 131.016 132.431  0.00  0.00    -0.239 OA
ENDBRANCH  23  24
ENDBRANCH  22  23
ENDBRANCH   6  22
BRANCH  18  29
ATOM     29  O           0     135.085 133.020 134.935  0.00  0.00    -0.362 OA
ATOM     30  H           0     135.139 133.613 135.697  0.00  0.00     0.213 HD
ENDBRANCH  18  29
BRANCH  18  31
ATOM     31  O           0     133.197 132.598 133.603  0.00  0.00    -0.362 OA
ATOM     32  H           0     133.313 131.833 134.184  0.00  0.00     0.213 HD
ENDBRANCH  18  31
TORSDOF 5
ENDMDL
MODEL 9
REMARK VINA RESULT:      -6.2      3.200      5.099
REMARK  5 active torsions:
REMARK  status: ('A' for Active; 'I' for Inactive)
REMARK    1  A    between atoms: C_6  and  C_7 
REMARK    2  A    between atoms: C_7  and  O_8 
REMARK    3  A    between atoms: O_8  and  C_9 
REMARK       I    between atoms: C_9  and  N_10 
REMARK    4  A    between atoms: C_23  and  O_24 
REMARK    5  A    between atoms: C_23  and  O_25 
ROOT
ATOM      1  N           0     135.941 133.598 147.964  0.00  0.00    -0.235 N 
ATOM      2  H           0     136.225 134.462 147.627  0.00  0.00     0.174 HD
ATOM      3  H           0     136.021 133.397 148.910  0.00  0.00     0.174 HD
ATOM      4  C           0     135.448 132.709 147.148  0.00  0.00     0.672 C 
ATOM      5  N           0     135.310 132.949 145.792  0.00  0.00    -0.218 N 
ATOM      6  C           0     135.366 131.812 144.879  0.00  0.00     0.151 C 
ATOM      7  C           0     134.427 130.692 145.283  0.00  0.00     0.180 C 
ATOM      8  N           0     133.044 131.058 144.910  0.00  0.00    -0.216 N 
ATOM      9  C           0     132.217 130.640 145.923  0.00  0.00     0.670 C 
ATOM     10  N           0     130.932 130.463 145.795  0.00  0.00    -0.235 N 
ATOM     11  H           0     130.503 130.629 144.940  0.00  0.00     0.174 HD
ATOM     12  H           0     130.405 130.166 146.553  0.00  0.00     0.174 HD
ATOM     13  C           0     134.351 130.455 146.782  0.00  0.00     0.217 C 
ATOM     14  N           0     132.911 130.432 147.089  0.00  0.00    -0.191 N 
ATOM     15  N           0     135.039 131.473 147.577  0.00  0.00    -0.183 N 
ATOM     16  C           0     135.244 130.861 148.902  0.00  0.00     0.150 C 
ATOM     17  C           0     135.589 129.384 148.592  0.00  0.00     0.093 C 
ATOM     18  C           0     134.993 129.117 147.187  0.00  0.00     0.209 C 
ATOM     19  H           0     135.178 133.850 145.458  0.00  0.00     0.178 HD
ATOM     20  H           0     132.770 131.511 144.097  0.00  0.00     0.178 HD
ATOM     21  H           0     132.519 130.290 147.965  0.00  0.00     0.180 HD
ENDROOT
BRANCH   6  22
ATOM     22  C           0     136.796 131.271 144.851  0.00  0.00     0.208 C 
BRANCH  22  23
ATOM     23  O           0     137.445 131.680 143.620  0.00  0.00    -0.302 OA
BRANCH  23  24
ATOM     24  C           0     137.504 132.984 143.289  0.00  0.00     0.358 C 
ATOM     25  N           0     137.027 133.400 142.099  0.00  0.00    -0.346 N 
ATOM     26  H           0     136.642 132.760 141.480  0.00  0.00     0.161 HD
ATOM     27  H           0     137.069 134.340 141.861  0.00  0.00     0.161 HD
ATOM     28  O           0     137.986 133.786 144.065  0.00  0.00    -0.239 OA
ENDBRANCH  23  24
ENDBRANCH  22  23
ENDBRANCH   6  22
BRANCH  18  29
ATOM     29  O           0     134.007 128.085 147.252  0.00  0.00    -0.362 OA
ATOM     30  H           0     133.326 128.308 146.602  0.00  0.00     0.213 HD
ENDBRANCH  18  29
BRANCH  18  31
ATOM     31  O           0     136.027 128.764 146.265  0.00  0.00    -0.362 OA
ATOM     32  H           0     135.786 129.153 145.413  0.00  0.00     0.213 HD
ENDBRANCH  18  31
TORSDOF 5
ENDMDL
