MODEL 1
REMARK VINA RESULT:      -7.5      0.000      0.000
REMARK  5 active torsions:
REMARK  status: ('A' for Active; 'I' for Inactive)
REMARK    1  A    between atoms: C_6  and  C_7 
REMARK    2  A    between atoms: C_7  and  O_8 
REMARK    3  A    between atoms: O_8  and  C_9 
REMARK       I    between atoms: C_9  and  N_10 
REMARK    4  A    between atoms: C_24  and  O_25 
REMARK    5  A    between atoms: C_24  and  O_26 
ROOT
ATOM      1  N           0     134.979 132.116 146.681  0.00  0.00    -0.235 N 
ATOM      2  H           0     135.241 132.223 147.610  0.00  0.00     0.174 HD
ATOM      3  H           0     134.322 131.447 146.437  0.00  0.00     0.174 HD
ATOM      4  C           0     135.509 132.876 145.764  0.00  0.00     0.672 C 
ATOM      5  N           0     136.447 133.848 146.063  0.00  0.00    -0.218 N 
ATOM      6  C           0     137.423 134.206 145.039  0.00  0.00     0.151 C 
ATOM      7  C           0     136.778 134.533 143.706  0.00  0.00     0.180 C 
ATOM      8  N           0     136.190 135.888 143.768  0.00  0.00    -0.216 N 
ATOM      9  C           0     134.992 135.851 143.099  0.00  0.00     0.670 C 
ATOM     10  N           0     134.376 136.904 142.641  0.00  0.00    -0.235 N 
ATOM     11  H           0     134.764 137.785 142.764  0.00  0.00     0.174 HD
ATOM     12  H           0     133.530 136.809 142.176  0.00  0.00     0.174 HD
ATOM     13  C           0     135.600 133.640 143.350  0.00  0.00     0.217 C 
ATOM     14  N           0     134.522 134.568 142.972  0.00  0.00    -0.191 N 
ATOM     15  N           0     135.177 132.759 144.439  0.00  0.00    -0.183 N 
ATOM     16  C           0     134.376 131.702 143.796  0.00  0.00     0.150 C 
ATOM     17  C           0     135.113 131.417 142.466  0.00  0.00     0.093 C 
ATOM     18  C           0     135.923 132.705 142.172  0.00  0.00     0.209 C 
ATOM     19  H           0     136.454 134.281 146.932  0.00  0.00     0.178 HD
ATOM     20  H           0     136.580 136.663 144.204  0.00  0.00     0.178 HD
ATOM     21  H           0     133.631 134.315 142.682  0.00  0.00     0.180 HD
ENDROOT
BRANCH   6  22
ATOM     22  C           0     138.388 133.036 144.845  0.00  0.00     0.208 C 
BRANCH  22  23
ATOM     23  O           0     138.921 132.630 146.133  0.00  0.00    -0.302 OA
BRANCH  23  24
ATOM     24  C           0     140.003 131.830 146.193  0.00  0.00     0.360 C 
ATOM     25  N           0     139.947 130.671 146.880  0.00  0.00    -0.341 N 
ATOM     26  C           0     141.124 129.802 146.945  0.00  0.00     0.151 C 
ATOM     27  H           0     139.128 130.414 147.332  0.00  0.00     0.164 HD
ATOM     28  O           0     141.028 132.152 145.628  0.00  0.00    -0.239 OA
ENDBRANCH  23  24
ENDBRANCH  22  23
ENDBRANCH   6  22
BRANCH  18  29
ATOM     29  O           0     135.499 133.288 140.937  0.00  0.00    -0.362 OA
ATOM     30  H           0     134.694 133.790 141.126  0.00  0.00     0.213 HD
ENDBRANCH  18  29
BRANCH  18  31
ATOM     31  O           0     137.321 132.417 142.134  0.00  0.00    -0.362 OA
ATOM     32  H           0     137.429 131.619 141.598  0.00  0.00     0.213 HD
ENDBRANCH  18  31
TORSDOF 5
ENDMDL
MODEL 2
REMARK VINA RESULT:      -7.2      2.549      5.384
REMARK  5 active torsions:
REMARK  status: ('A' for Active; 'I' for Inactive)
REMARK    1  A    between atoms: C_6  and  C_7 
REMARK    2  A    between atoms: C_7  and  O_8 
REMARK    3  A    between atoms: O_8  and  C_9 
REMARK       I    between atoms: C_9  and  N_10 
REMARK    4  A    between atoms: C_24  and  O_25 
REMARK    5  A    between atoms: C_24  and  O_26 
ROOT
ATOM      1  N           0     139.690 130.548 146.216  0.00  0.00    -0.235 N 
ATOM      2  H           0     140.477 130.691 145.666  0.00  0.00     0.174 HD
ATOM      3  H           0     139.677 129.826 146.864  0.00  0.00     0.174 HD
ATOM      4  C           0     138.656 131.328 146.088  0.00  0.00     0.672 C 
ATOM      5  N           0     138.628 132.375 145.182  0.00  0.00    -0.218 N 
ATOM      6  C           0     137.337 132.787 144.639  0.00  0.00     0.151 C 
ATOM      7  C           0     136.303 133.040 145.720  0.00  0.00     0.180 C 
ATOM      8  N           0     136.573 134.347 146.355  0.00  0.00    -0.216 N 
ATOM      9  C           0     136.347 134.207 147.703  0.00  0.00     0.670 C 
ATOM     10  N           0     136.133 135.202 148.516  0.00  0.00    -0.235 N 
ATOM     11  H           0     136.125 136.112 148.179  0.00  0.00     0.174 HD
ATOM     12  H           0     135.980 135.034 149.459  0.00  0.00     0.174 HD
ATOM     13  C           0     136.359 132.053 146.876  0.00  0.00     0.217 C 
ATOM     14  N           0     136.376 132.890 148.087  0.00  0.00    -0.191 N 
ATOM     15  N           0     137.520 131.163 146.837  0.00  0.00    -0.183 N 
ATOM     16  C           0     137.176 130.036 147.723  0.00  0.00     0.150 C 
ATOM     17  C           0     135.673 129.785 147.459  0.00  0.00     0.093 C 
ATOM     18  C           0     135.133 131.125 146.898  0.00  0.00     0.209 C 
ATOM     19  H           0     139.447 132.823 144.915  0.00  0.00     0.178 HD
ATOM     20  H           0     136.857 135.157 145.902  0.00  0.00     0.178 HD
ATOM     21  H           0     136.401 132.565 149.001  0.00  0.00     0.180 HD
ENDROOT
BRANCH   6  22
ATOM     22  C           0     136.819 131.690 143.709  0.00  0.00     0.208 C 
BRANCH  22  23
ATOM     23  O           0     136.476 132.269 142.422  0.00  0.00    -0.302 OA
BRANCH  23  24
ATOM     24  C           0     135.198 132.595 142.150  0.00  0.00     0.360 C 
ATOM     25  N           0     134.925 133.556 141.245  0.00  0.00    -0.341 N 
ATOM     26  C           0     133.535 133.911 140.950  0.00  0.00     0.151 C 
ATOM     27  H           0     135.650 134.013 140.790  0.00  0.00     0.164 HD
ATOM     28  O           0     134.290 132.023 142.720  0.00  0.00    -0.239 OA
ENDBRANCH  23  24
ENDBRANCH  22  23
ENDBRANCH   6  22
BRANCH  18  29
ATOM     29  O           0     134.119 131.652 147.758  0.00  0.00    -0.362 OA
ATOM     30  H           0     134.496 132.429 148.192  0.00  0.00     0.213 HD
ENDBRANCH  18  29
BRANCH  18  31
ATOM     31  O           0     134.622 130.943 145.577  0.00  0.00    -0.362 OA
ATOM     32  H           0     134.637 129.993 145.399  0.00  0.00     0.213 HD
ENDBRANCH  18  31
TORSDOF 5
ENDMDL
MODEL 3
REMARK VINA RESULT:      -7.1      1.769      2.221
REMARK  5 active torsions:
REMARK  status: ('A' for Active; 'I' for Inactive)
REMARK    1  A    between atoms: C_6  and  C_7 
REMARK    2  A    between atoms: C_7  and  O_8 
REMARK    3  A    between atoms: O_8  and  C_9 
REMARK       I    between atoms: C_9  and  N_10 
REMARK    4  A    between atoms: C_24  and  O_25 
REMARK    5  A    between atoms: C_24  and  O_26 
ROOT
ATOM      1  N           0     136.010 134.639 146.665  0.00  0.00    -0.235 N 
ATOM      2  H           0     136.443 135.474 146.907  0.00  0.00     0.174 HD
ATOM      3  H           0     135.580 134.102 147.348  0.00  0.00     0.174 HD
ATOM      4  C           0     136.003 134.245 145.424  0.00  0.00     0.672 C 
ATOM      5  N           0     136.598 134.979 144.413  0.00  0.00    -0.218 N 
ATOM      6  C           0     137.105 134.265 143.245  0.00  0.00     0.151 C 
ATOM      7  C           0     136.075 133.331 142.638  0.00  0.00     0.180 C 
ATOM      8  N           0     135.097 134.123 141.862  0.00  0.00    -0.216 N 
ATOM      9  C           0     133.856 133.578 142.082  0.00  0.00     0.670 C 
ATOM     10  N           0     132.825 133.770 141.307  0.00  0.00    -0.235 N 
ATOM     11  H           0     132.908 134.326 140.517  0.00  0.00     0.174 HD
ATOM     12  H           0     131.974 133.355 141.520  0.00  0.00     0.174 HD
ATOM     13  C           0     135.221 132.599 143.662  0.00  0.00     0.217 C 
ATOM     14  N           0     133.833 132.809 143.218  0.00  0.00    -0.191 N 
ATOM     15  N           0     135.409 133.072 145.034  0.00  0.00    -0.183 N 
ATOM     16  C           0     134.882 131.996 145.893  0.00  0.00     0.150 C 
ATOM     17  C           0     135.313 130.691 145.183  0.00  0.00     0.093 C 
ATOM     18  C           0     135.535 131.094 143.703  0.00  0.00     0.209 C 
ATOM     19  H           0     136.675 135.944 144.479  0.00  0.00     0.178 HD
ATOM     20  H           0     135.297 134.887 141.299  0.00  0.00     0.178 HD
ATOM     21  H           0     133.039 132.461 143.653  0.00  0.00     0.180 HD
ENDROOT
BRANCH   6  22
ATOM     22  C           0     138.328 133.446 143.659  0.00  0.00     0.208 C 
BRANCH  22  23
ATOM     23  O           0     138.264 133.166 145.082  0.00  0.00    -0.302 OA
BRANCH  23  24
ATOM     24  C           0     139.026 132.189 145.611  0.00  0.00     0.360 C 
ATOM     25  N           0     140.297 132.448 145.974  0.00  0.00    -0.341 N 
ATOM     26  C           0     141.125 131.386 146.549  0.00  0.00     0.151 C 
ATOM     27  H           0     140.664 133.338 145.854  0.00  0.00     0.164 HD
ATOM     28  O           0     138.566 131.075 145.761  0.00  0.00    -0.239 OA
ENDBRANCH  23  24
ENDBRANCH  22  23
ENDBRANCH   6  22
BRANCH  18  29
ATOM     29  O           0     134.644 130.371 142.850  0.00  0.00    -0.362 OA
ATOM     30  H           0     135.064 129.520 142.664  0.00  0.00     0.213 HD
ENDBRANCH  18  29
BRANCH  18  31
ATOM     31  O           0     136.892 130.859 143.321  0.00  0.00    -0.362 OA
ATOM     32  H           0     136.930 129.963 142.959  0.00  0.00     0.213 HD
ENDBRANCH  18  31
TORSDOF 5
ENDMDL
MODEL 4
REMARK VINA RESULT:      -6.9     10.002     12.757
REMARK  5 active torsions:
REMARK  status: ('A' for Active; 'I' for Inactive)
REMARK    1  A    between atoms: C_6  and  C_7 
REMARK    2  A    between atoms: C_7  and  O_8 
REMARK    3  A    between atoms: O_8  and  C_9 
REMARK       I    between atoms: C_9  and  N_10 
REMARK    4  A    between atoms: C_24  and  O_25 
REMARK    5  A    between atoms: C_24  and  O_26 
ROOT
ATOM      1  N           0     128.816 134.223 132.048  0.00  0.00    -0.235 N 
ATOM      2  H           0     128.072 133.832 131.562  0.00  0.00     0.174 HD
ATOM      3  H           0     129.008 135.169 131.960  0.00  0.00     0.174 HD
ATOM      4  C           0     129.552 133.477 132.821  0.00  0.00     0.672 C 
ATOM      5  N           0     129.316 132.123 132.984  0.00  0.00    -0.218 N 
ATOM      6  C           0     130.445 131.256 133.307  0.00  0.00     0.151 C 
ATOM      7  C           0     131.252 131.763 134.486  0.00  0.00     0.180 C 
ATOM      8  N           0     130.527 131.461 135.739  0.00  0.00    -0.216 N 
ATOM      9  C           0     130.676 132.541 136.574  0.00  0.00     0.670 C 
ATOM     10  N           0     130.493 132.498 137.864  0.00  0.00    -0.235 N 
ATOM     11  H           0     130.235 131.666 138.291  0.00  0.00     0.174 HD
ATOM     12  H           0     130.614 133.299 138.398  0.00  0.00     0.174 HD
ATOM     13  C           0     131.423 133.274 134.519  0.00  0.00     0.217 C 
ATOM     14  N           0     131.041 133.669 135.884  0.00  0.00    -0.191 N 
ATOM     15  N           0     130.616 133.981 133.523  0.00  0.00    -0.183 N 
ATOM     16  C           0     131.231 135.316 133.401  0.00  0.00     0.150 C 
ATOM     17  C           0     132.751 135.049 133.496  0.00  0.00     0.093 C 
ATOM     18  C           0     132.876 133.695 134.240  0.00  0.00     0.209 C 
ATOM     19  H           0     128.421 131.760 132.887  0.00  0.00     0.178 HD
ATOM     20  H           0     130.035 130.648 135.934  0.00  0.00     0.178 HD
ATOM     21  H           0     131.047 134.573 136.236  0.00  0.00     0.180 HD
ENDROOT
BRANCH   6  22
ATOM     22  C           0     131.362 131.164 132.086  0.00  0.00     0.208 C 
BRANCH  22  23
ATOM     23  O           0     132.287 130.059 132.258  0.00  0.00    -0.302 OA
BRANCH  23  24
ATOM     24  C           0     131.846 128.790 132.163  0.00  0.00     0.360 C 
ATOM     25  N           0     131.826 127.999 133.253  0.00  0.00    -0.341 N 
ATOM     26  C           0     131.347 126.619 133.148  0.00  0.00     0.151 C 
ATOM     27  H           0     132.130 128.343 134.107  0.00  0.00     0.164 HD
ATOM     28  O           0     131.465 128.359 131.092  0.00  0.00    -0.239 OA
ENDBRANCH  23  24
ENDBRANCH  22  23
ENDBRANCH   6  22
BRANCH  18  29
ATOM     29  O           0     133.594 133.864 135.465  0.00  0.00    -0.362 OA
ATOM     30  H           0     134.380 133.303 135.408  0.00  0.00     0.213 HD
ENDBRANCH  18  29
BRANCH  18  31
ATOM     31  O           0     133.523 132.728 133.411  0.00  0.00    -0.362 OA
ATOM     32  H           0     132.870 132.434 132.761  0.00  0.00     0.213 HD
ENDBRANCH  18  31
TORSDOF 5
ENDMDL
MODEL 5
REMARK VINA RESULT:      -6.8      2.735      4.472
REMARK  5 active torsions:
REMARK  status: ('A' for Active; 'I' for Inactive)
REMARK    1  A    between atoms: C_6  and  C_7 
REMARK    2  A    between atoms: C_7  and  O_8 
REMARK    3  A    between atoms: O_8  and  C_9 
REMARK       I    between atoms: C_9  and  N_10 
REMARK    4  A    between atoms: C_24  and  O_25 
REMARK    5  A    between atoms: C_24  and  O_26 
ROOT
ATOM      1  N           0     138.823 130.762 145.477  0.00  0.00    -0.235 N 
ATOM      2  H           0     138.953 130.068 146.143  0.00  0.00     0.174 HD
ATOM      3  H           0     139.570 131.061 144.937  0.00  0.00     0.174 HD
ATOM      4  C           0     137.643 131.287 145.306  0.00  0.00     0.672 C 
ATOM      5  N           0     136.544 130.890 146.049  0.00  0.00    -0.218 N 
ATOM      6  C           0     135.478 131.860 146.280  0.00  0.00     0.151 C 
ATOM      7  C           0     135.000 132.519 145.000  0.00  0.00     0.180 C 
ATOM      8  N           0     134.128 131.578 144.264  0.00  0.00    -0.216 N 
ATOM      9  C           0     134.419 131.703 142.928  0.00  0.00     0.670 C 
ATOM     10  N           0     133.628 131.316 141.968  0.00  0.00    -0.235 N 
ATOM     11  H           0     132.772 130.910 142.178  0.00  0.00     0.174 HD
ATOM     12  H           0     133.894 131.433 141.042  0.00  0.00     0.174 HD
ATOM     13  C           0     136.111 132.836 144.012  0.00  0.00     0.217 C 
ATOM     14  N           0     135.645 132.285 142.728  0.00  0.00    -0.191 N 
ATOM     15  N           0     137.410 132.273 144.383  0.00  0.00    -0.183 N 
ATOM     16  C           0     138.402 133.032 143.600  0.00  0.00     0.150 C 
ATOM     17  C           0     137.866 134.483 143.605  0.00  0.00     0.093 C 
ATOM     18  C           0     136.346 134.350 143.877  0.00  0.00     0.209 C 
ATOM     19  H           0     136.484 129.990 146.405  0.00  0.00     0.178 HD
ATOM     20  H           0     133.471 130.981 144.655  0.00  0.00     0.178 HD
ATOM     21  H           0     136.123 132.329 141.885  0.00  0.00     0.180 HD
ENDROOT
BRANCH   6  22
ATOM     22  C           0     135.993 132.944 147.228  0.00  0.00     0.208 C 
BRANCH  22  23
ATOM     23  O           0     135.219 132.919 148.456  0.00  0.00    -0.302 OA
BRANCH  23  24
ATOM     24  C           0     134.728 131.753 148.920  0.00  0.00     0.360 C 
ATOM     25  N           0     133.396 131.579 149.032  0.00  0.00    -0.341 N 
ATOM     26  C           0     132.863 130.312 149.537  0.00  0.00     0.151 C 
ATOM     27  H           0     132.791 132.294 148.779  0.00  0.00     0.164 HD
ATOM     28  O           0     135.486 130.859 149.237  0.00  0.00    -0.239 OA
ENDBRANCH  23  24
ENDBRANCH  22  23
ENDBRANCH   6  22
BRANCH  18  29
ATOM     29  O           0     135.596 134.880 142.781  0.00  0.00    -0.362 OA
ATOM     30  H           0     136.212 134.977 142.042  0.00  0.00     0.213 HD
ENDBRANCH  18  29
BRANCH  18  31
ATOM     31  O           0     135.996 135.018 145.090  0.00  0.00    -0.362 OA
ATOM     32  H           0     135.648 134.344 145.690  0.00  0.00     0.213 HD
ENDBRANCH  18  31
TORSDOF 5
ENDMDL
MODEL 6
REMARK VINA RESULT:      -6.7      8.848     12.046
REMARK  5 active torsions:
REMARK  status: ('A' for Active; 'I' for Inactive)
REMARK    1  A    between atoms: C_6  and  C_7 
REMARK    2  A    between atoms: C_7  and  O_8 
REMARK    3  A    between atoms: O_8  and  C_9 
REMARK       I    between atoms: C_9  and  N_10 
REMARK    4  A    between atoms: C_24  and  O_25 
REMARK    5  A    between atoms: C_24  and  O_26 
ROOT
ATOM      1  N           0     132.159 137.321 132.475  0.00  0.00    -0.235 N 
ATOM      2  H           0     131.362 137.863 132.354  0.00  0.00     0.174 HD
ATOM      3  H           0     132.927 137.454 131.898  0.00  0.00     0.174 HD
ATOM      4  C           0     132.197 136.421 133.416  0.00  0.00     0.672 C 
ATOM      5  N           0     131.129 136.198 134.267  0.00  0.00    -0.218 N 
ATOM      6  C           0     130.961 134.863 134.833  0.00  0.00     0.151 C 
ATOM      7  C           0     132.229 134.339 135.480  0.00  0.00     0.180 C 
ATOM      8  N           0     132.408 134.989 136.796  0.00  0.00    -0.216 N 
ATOM      9  C           0     133.747 135.257 136.946  0.00  0.00     0.670 C 
ATOM     10  N           0     134.323 135.487 138.093  0.00  0.00    -0.235 N 
ATOM     11  H           0     133.800 135.473 138.910  0.00  0.00     0.174 HD
ATOM     12  H           0     135.274 135.670 138.130  0.00  0.00     0.174 HD
ATOM     13  C           0     133.502 134.687 134.724  0.00  0.00     0.217 C 
ATOM     14  N           0     134.403 135.255 135.741  0.00  0.00    -0.191 N 
ATOM     15  N           0     133.296 135.628 133.623  0.00  0.00    -0.183 N 
ATOM     16  C           0     134.488 135.491 132.766  0.00  0.00     0.150 C 
ATOM     17  C           0     134.803 133.978 132.785  0.00  0.00     0.093 C 
ATOM     18  C           0     134.149 133.447 134.086  0.00  0.00     0.209 C 
ATOM     19  H           0     130.508 136.912 134.483  0.00  0.00     0.178 HD
ATOM     20  H           0     131.707 135.189 137.437  0.00  0.00     0.178 HD
ATOM     21  H           0     135.306 135.572 135.586  0.00  0.00     0.180 HD
ENDROOT
BRANCH   6  22
ATOM     22  C           0     130.545 133.903 133.718  0.00  0.00     0.208 C 
BRANCH  22  23
ATOM     23  O           0     130.463 132.553 134.248  0.00  0.00    -0.302 OA
BRANCH  23  24
ATOM     24  C           0     130.236 131.516 133.418  0.00  0.00     0.360 C 
ATOM     25  N           0     129.613 130.412 133.874  0.00  0.00    -0.341 N 
ATOM     26  C           0     129.367 129.285 132.972  0.00  0.00     0.151 C 
ATOM     27  H           0     129.327 130.364 134.800  0.00  0.00     0.164 HD
ATOM     28  O           0     130.594 131.577 132.259  0.00  0.00    -0.239 OA
ENDBRANCH  23  24
ENDBRANCH  22  23
ENDBRANCH   6  22
BRANCH  18  29
ATOM     29  O           0     135.143 132.896 134.954  0.00  0.00    -0.362 OA
ATOM     30  H           0     134.728 132.784 135.820  0.00  0.00     0.213 HD
ENDBRANCH  18  29
BRANCH  18  31
ATOM     31  O           0     133.155 132.468 133.782  0.00  0.00    -0.362 OA
ATOM     32  H           0     132.545 132.875 133.151  0.00  0.00     0.213 HD
ENDBRANCH  18  31
TORSDOF 5
ENDMDL
MODEL 7
REMARK VINA RESULT:      -6.6      2.351      5.871
REMARK  5 active torsions:
REMARK  status: ('A' for Active; 'I' for Inactive)
REMARK    1  A    between atoms: C_6  and  C_7 
REMARK    2  A    between atoms: C_7  and  O_8 
REMARK    3  A    between atoms: O_8  and  C_9 
REMARK       I    between atoms: C_9  and  N_10 
REMARK    4  A    between atoms: C_24  and  O_25 
REMARK    5  A    between atoms: C_24  and  O_26 
ROOT
ATOM      1  N           0     135.098 130.472 143.344  0.00  0.00    -0.235 N 
ATOM      2  H           0     134.949 130.573 142.390  0.00  0.00     0.174 HD
ATOM      3  H           0     134.676 129.745 143.826  0.00  0.00     0.174 HD
ATOM      4  C           0     135.871 131.311 143.974  0.00  0.00     0.672 C 
ATOM      5  N           0     136.500 132.362 143.330  0.00  0.00    -0.218 N 
ATOM      6  C           0     136.803 133.564 144.100  0.00  0.00     0.151 C 
ATOM      7  C           0     137.540 133.262 145.390  0.00  0.00     0.180 C 
ATOM      8  N           0     138.957 132.973 145.086  0.00  0.00    -0.216 N 
ATOM      9  C           0     139.352 131.939 145.899  0.00  0.00     0.670 C 
ATOM     10  N           0     140.595 131.656 146.171  0.00  0.00    -0.235 N 
ATOM     11  H           0     141.309 132.192 145.791  0.00  0.00     0.174 HD
ATOM     12  H           0     140.807 130.911 146.754  0.00  0.00     0.174 HD
ATOM     13  C           0     137.056 132.009 146.103  0.00  0.00     0.217 C 
ATOM     14  N           0     138.278 131.240 146.389  0.00  0.00    -0.191 N 
ATOM     15  N           0     136.108 131.214 145.321  0.00  0.00    -0.183 N 
ATOM     16  C           0     135.432 130.341 146.299  0.00  0.00     0.150 C 
ATOM     17  C           0     135.247 131.234 147.547  0.00  0.00     0.093 C 
ATOM     18  C           0     136.326 132.339 147.416  0.00  0.00     0.209 C 
ATOM     19  H           0     136.735 132.299 142.390  0.00  0.00     0.178 HD
ATOM     20  H           0     139.507 133.430 144.431  0.00  0.00     0.178 HD
ATOM     21  H           0     138.317 130.386 146.848  0.00  0.00     0.180 HD
ENDROOT
BRANCH   6  22
ATOM     22  C           0     135.493 134.278 144.436  0.00  0.00     0.208 C 
BRANCH  22  23
ATOM     23  O           0     135.022 135.000 143.268  0.00  0.00    -0.302 OA
BRANCH  23  24
ATOM     24  C           0     134.187 134.401 142.397  0.00  0.00     0.360 C 
ATOM     25  N           0     134.009 134.922 141.167  0.00  0.00    -0.341 N 
ATOM     26  C           0     133.100 134.270 140.221  0.00  0.00     0.151 C 
ATOM     27  H           0     134.482 135.728 140.908  0.00  0.00     0.164 HD
ATOM     28  O           0     133.593 133.392 142.721  0.00  0.00    -0.239 OA
ENDBRANCH  23  24
ENDBRANCH  22  23
ENDBRANCH   6  22
BRANCH  18  29
ATOM     29  O           0     137.231 132.285 148.521  0.00  0.00    -0.362 OA
ATOM     30  H           0     136.714 132.017 149.293  0.00  0.00     0.213 HD
ENDBRANCH  18  29
BRANCH  18  31
ATOM     31  O           0     135.714 133.627 147.334  0.00  0.00    -0.362 OA
ATOM     32  H           0     134.855 133.557 147.773  0.00  0.00     0.213 HD
ENDBRANCH  18  31
TORSDOF 5
ENDMDL
MODEL 8
REMARK VINA RESULT:      -6.6      2.422      5.840
REMARK  5 active torsions:
REMARK  status: ('A' for Active; 'I' for Inactive)
REMARK    1  A    between atoms: C_6  and  C_7 
REMARK    2  A    between atoms: C_7  and  O_8 
REMARK    3  A    between atoms: O_8  and  C_9 
REMARK       I    between atoms: C_9  and  N_10 
REMARK    4  A    between atoms: C_24  and  O_25 
REMARK    5  A    between atoms: C_24  and  O_26 
ROOT
ATOM      1  N           0     136.218 134.568 147.645  0.00  0.00    -0.235 N 
ATOM      2  H           0     135.792 135.329 147.219  0.00  0.00     0.174 HD
ATOM      3  H           0     136.672 134.679 148.494  0.00  0.00     0.174 HD
ATOM      4  C           0     136.174 133.396 147.077  0.00  0.00     0.672 C 
ATOM      5  N           0     135.534 133.185 145.868  0.00  0.00    -0.218 N 
ATOM      6  C           0     136.017 132.110 145.008  0.00  0.00     0.151 C 
ATOM      7  C           0     136.142 130.787 145.740  0.00  0.00     0.180 C 
ATOM      8  N           0     134.798 130.193 145.906  0.00  0.00    -0.216 N 
ATOM      9  C           0     134.746 129.631 147.157  0.00  0.00     0.670 C 
ATOM     10  N           0     133.880 128.726 147.517  0.00  0.00    -0.235 N 
ATOM     11  H           0     133.218 128.408 146.883  0.00  0.00     0.174 HD
ATOM     12  H           0     133.897 128.369 148.419  0.00  0.00     0.174 HD
ATOM     13  C           0     136.665 130.911 147.162  0.00  0.00     0.217 C 
ATOM     14  N           0     135.717 130.140 147.983  0.00  0.00    -0.191 N 
ATOM     15  N           0     136.764 132.292 147.636  0.00  0.00    -0.183 N 
ATOM     16  C           0     137.676 132.242 148.794  0.00  0.00     0.150 C 
ATOM     17  C           0     138.754 131.209 148.389  0.00  0.00     0.093 C 
ATOM     18  C           0     138.080 130.326 147.308  0.00  0.00     0.209 C 
ATOM     19  H           0     134.782 133.738 145.601  0.00  0.00     0.178 HD
ATOM     20  H           0     134.084 130.200 145.249  0.00  0.00     0.178 HD
ATOM     21  H           0     135.771 130.011 148.943  0.00  0.00     0.180 HD
ENDROOT
BRANCH   6  22
ATOM     22  C           0     137.389 132.498 144.454  0.00  0.00     0.208 C 
BRANCH  22  23
ATOM     23  O           0     137.297 132.676 143.016  0.00  0.00    -0.302 OA
BRANCH  23  24
ATOM     24  C           0     136.273 133.374 142.488  0.00  0.00     0.360 C 
ATOM     25  N           0     135.625 132.904 141.404  0.00  0.00    -0.341 N 
ATOM     26  C           0     134.513 133.664 140.830  0.00  0.00     0.151 C 
ATOM     27  H           0     135.895 132.062 141.005  0.00  0.00     0.164 HD
ATOM     28  O           0     135.935 134.428 142.988  0.00  0.00    -0.239 OA
ENDBRANCH  23  24
ENDBRANCH  22  23
ENDBRANCH   6  22
BRANCH  18  29
ATOM     29  O           0     138.019 128.966 147.743  0.00  0.00    -0.362 OA
ATOM     30  H           0     138.906 128.598 147.634  0.00  0.00     0.213 HD
ENDBRANCH  18  29
BRANCH  18  31
ATOM     31  O           0     138.788 130.424 146.071  0.00  0.00    -0.362 OA
ATOM     32  H           0     139.236 129.578 145.938  0.00  0.00     0.213 HD
ENDBRANCH  18  31
TORSDOF 5
ENDMDL
MODEL 9
REMARK VINA RESULT:      -6.5     10.395     12.239
REMARK  5 active torsions:
REMARK  status: ('A' for Active; 'I' for Inactive)
REMARK    1  A    between atoms: C_6  and  C_7 
REMARK    2  A    between atoms: C_7  and  O_8 
REMARK    3  A    between atoms: O_8  and  C_9 
REMARK       I    between atoms: C_9  and  N_10 
REMARK    4  A    between atoms: C_24  and  O_25 
REMARK    5  A    between atoms: C_24  and  O_26 
ROOT
ATOM      1  N           0     134.761 133.540 132.320  0.00  0.00    -0.235 N 
ATOM      2  H           0     134.840 132.907 131.588  0.00  0.00     0.174 HD
ATOM      3  H           0     135.556 133.955 132.689  0.00  0.00     0.174 HD
ATOM      4  C           0     133.587 133.836 132.801  0.00  0.00     0.672 C 
ATOM      5  N           0     132.423 133.275 132.305  0.00  0.00    -0.218 N 
ATOM      6  C           0     131.285 133.130 133.207  0.00  0.00     0.151 C 
ATOM      7  C           0     130.944 134.420 133.930  0.00  0.00     0.180 C 
ATOM      8  N           0     130.230 135.323 133.003  0.00  0.00    -0.216 N 
ATOM      9  C           0     130.687 136.597 133.233  0.00  0.00     0.670 C 
ATOM     10  N           0     130.052 137.678 132.876  0.00  0.00    -0.235 N 
ATOM     11  H           0     129.199 137.611 132.419  0.00  0.00     0.174 HD
ATOM     12  H           0     130.430 138.550 133.069  0.00  0.00     0.174 HD
ATOM     13  C           0     132.158 135.227 134.364  0.00  0.00     0.217 C 
ATOM     14  N           0     131.896 136.593 133.883  0.00  0.00    -0.191 N 
ATOM     15  N           0     133.425 134.719 133.837  0.00  0.00    -0.183 N 
ATOM     16  C           0     134.468 135.313 134.693  0.00  0.00     0.150 C 
ATOM     17  C           0     133.859 135.290 136.114  0.00  0.00     0.093 C 
ATOM     18  C           0     132.325 135.235 135.893  0.00  0.00     0.209 C 
ATOM     19  H           0     132.366 132.986 131.380  0.00  0.00     0.178 HD
ATOM     20  H           0     129.560 135.062 132.351  0.00  0.00     0.178 HD
ATOM     21  H           0     132.477 137.360 134.005  0.00  0.00     0.180 HD
ENDROOT
BRANCH   6  22
ATOM     22  C           0     131.611 132.055 134.245  0.00  0.00     0.208 C 
BRANCH  22  23
ATOM     23  O           0     131.095 130.775 133.794  0.00  0.00    -0.302 OA
BRANCH  23  24
ATOM     24  C           0     131.923 129.878 133.225  0.00  0.00     0.360 C 
ATOM     25  N           0     131.687 128.559 133.366  0.00  0.00    -0.341 N 
ATOM     26  C           0     132.589 127.584 132.748  0.00  0.00     0.151 C 
ATOM     27  H           0     130.921 128.255 133.877  0.00  0.00     0.164 HD
ATOM     28  O           0     132.883 130.258 132.586  0.00  0.00    -0.239 OA
ENDBRANCH  23  24
ENDBRANCH  22  23
ENDBRANCH   6  22
BRANCH  18  29
ATOM     29  O           0     131.699 136.387 136.462  0.00  0.00    -0.362 OA
ATOM     30  H           0     131.006 136.661 135.847  0.00  0.00     0.213 HD
ENDBRANCH  18  29
BRANCH  18  31
ATOM     31  O           0     131.783 134.041 136.459  0.00  0.00    -0.362 OA
ATOM     32  H           0     132.494 133.386 136.468  0.00  0.00     0.213 HD
ENDBRANCH  18  31
TORSDOF 5
ENDMDL
