# created with PyMOL 2.3.4
@<TRIPOS>MOLECULE
ligand_out_0001
32 34 1                 
SMALL
USER_CHARGES
@<TRIPOS>ATOM
1	   N	134.979	132.116	146.681	N.3	1	UNK0	-0.235	
2	   N	136.447	133.848	146.063	N.3	1	UNK0	-0.218	
3	   N	136.190	135.888	143.768	N.3	1	UNK0	-0.216	
4	   N	134.376	136.904	142.641	N.3	1	UNK0	-0.235	
5	   N	134.522	134.568	142.972	N.3	1	UNK0	-0.191	
6	   N	135.177	132.759	144.439	N.3	1	UNK0	-0.183	
7	   N	139.947	130.671	146.880	N.pl3	1	UNK0	-0.341	
8	   C	135.509	132.876	145.764	C.3	1	UNK0	0.672	
9	   C	137.423	134.206	145.039	C.3	1	UNK0	0.151	
10	   C	136.778	134.533	143.706	C.3	1	UNK0	0.180	
11	   C	134.992	135.851	143.099	C.3	1	UNK0	0.670	
12	   C	135.600	133.640	143.350	C.3	1	UNK0	0.217	
13	   C	134.376	131.702	143.796	C.3	1	UNK0	0.150	
14	   C	135.113	131.417	142.466	C.3	1	UNK0	0.093	
15	   C	135.923	132.705	142.172	C.3	1	UNK0	0.209	
16	   C	138.388	133.036	144.845	C.2	1	UNK0	0.208	
17	   C	140.003	131.830	146.193	C.2	1	UNK0	0.360	
18	   C	141.124	129.802	146.945	C.3	1	UNK0	0.151	
19	   O	138.921	132.630	146.133	O.2	1	UNK0	-0.302	
20	   O	141.028	132.152	145.628	O.co2	1	UNK0	-0.239	
21	   O	135.499	133.288	140.937	O.2	1	UNK0	-0.362	
22	   O	137.321	132.417	142.134	O.2	1	UNK0	-0.362	
23	   H	135.241	132.223	147.610	 H	1	UNK0	0.174	
24	   H	134.322	131.447	146.437	 H	1	UNK0	0.174	
25	   H	134.764	137.785	142.764	 H	1	UNK0	0.174	
26	   H	133.530	136.809	142.176	 H	1	UNK0	0.174	
27	   H	136.454	134.281	146.932	 H	1	UNK0	0.178	
28	   H	136.580	136.663	144.204	 H	1	UNK0	0.178	
29	   H	133.631	134.315	142.682	 H	1	UNK0	0.180	
30	   H	139.128	130.414	147.332	 H	1	UNK0	0.164	
31	   H	134.694	133.790	141.126	 H	1	UNK0	0.213	
32	   H	137.429	131.619	141.598	 H	1	UNK0	0.213	
@<TRIPOS>BOND
1 1 8 1
2 1 23 1
3 1 24 1
4 2 9 1
5 2 27 1
6 3 11 1
7 3 28 1
8 4 25 1
9 4 26 1
10 5 29 1
11 6 13 1
12 7 18 1
13 7 30 1
14 2 8 1
15 6 8 1
16 9 10 1
17 9 16 1
18 3 10 1
19 10 12 1
20 4 11 1
21 5 11 1
22 5 12 1
23 6 12 1
24 12 15 1
25 13 14 1
26 14 15 1
27 15 21 2
28 15 22 2
29 16 19 2
30 7 17 1
31 17 20 2
32 17 19 2
33 21 31 1
34 22 32 1
@<TRIPOS>SUBSTRUCTURE
1	UNK0	1	GROUP	1 ****	UNK
