MODEL 1
REMARK VINA RESULT:      -8.3      0.000      0.000
REMARK  11 active torsions:
REMARK  status: ('A' for Active; 'I' for Inactive)
REMARK    1  A    between atoms: C_6  and  C_7 
REMARK    2  A    between atoms: C_7  and  O_8 
REMARK    3  A    between atoms: O_8  and  C_9 
REMARK       I    between atoms: C_9  and  N_10 
REMARK    4  A    between atoms: N_10  and  C_11 
REMARK    5  A    between atoms: C_11  and  C_12 
REMARK    6  A    between atoms: C_12  and  N_13 
REMARK       I    between atoms: N_13  and  C_14 
REMARK    7  A    between atoms: C_14  and  C_15 
REMARK    8  A    between atoms: C_15  and  C_16 
REMARK    9  A    between atoms: C_16  and  N_17 
REMARK   10  A    between atoms: C_37  and  O_38 
REMARK   11  A    between atoms: C_37  and  O_39 
ROOT
ATOM      1  N           0     130.821 133.037 136.567  0.00  0.00    -0.235 N 
ATOM      2  H           0     130.790 133.692 137.282  0.00  0.00     0.174 HD
ATOM      3  H           0     130.930 132.096 136.775  0.00  0.00     0.174 HD
ATOM      4  C           0     130.711 133.420 135.326  0.00  0.00     0.672 C 
ATOM      5  N           0     130.548 134.750 134.979  0.00  0.00    -0.218 N 
ATOM      6  C           0     131.042 135.190 133.677  0.00  0.00     0.151 C 
ATOM      7  C           0     130.551 134.316 132.539  0.00  0.00     0.180 C 
ATOM      8  N           0     129.144 134.654 132.237  0.00  0.00    -0.216 N 
ATOM      9  C           0     128.482 133.480 131.972  0.00  0.00     0.670 C 
ATOM     10  N           0     127.352 133.407 131.328  0.00  0.00    -0.235 N 
ATOM     11  H           0     126.925 134.215 131.003  0.00  0.00     0.174 HD
ATOM     12  H           0     126.936 132.544 131.174  0.00  0.00     0.174 HD
ATOM     13  C           0     130.506 132.832 132.871  0.00  0.00     0.217 C 
ATOM     14  N           0     129.159 132.395 132.468  0.00  0.00    -0.191 N 
ATOM     15  N           0     130.754 132.535 134.282  0.00  0.00    -0.183 N 
ATOM     16  C           0     131.113 131.105 134.322  0.00  0.00     0.150 C 
ATOM     17  C           0     131.975 130.891 133.054  0.00  0.00     0.093 C 
ATOM     18  C           0     131.569 132.037 132.093  0.00  0.00     0.209 C 
ATOM     19  H           0     130.116 135.373 135.584  0.00  0.00     0.178 HD
ATOM     20  H           0     128.758 135.544 132.229  0.00  0.00     0.178 HD
ATOM     21  H           0     128.810 131.492 132.539  0.00  0.00     0.180 HD
ENDROOT
BRANCH   6  22
ATOM     22  C           0     132.571 135.163 133.694  0.00  0.00     0.208 C 
BRANCH  22  23
ATOM     23  O           0     133.061 136.121 134.668  0.00  0.00    -0.302 OA
BRANCH  23  24
ATOM     24  C           0     133.809 135.702 135.707  0.00  0.00     0.360 C 
ATOM     25  N           0     133.234 135.486 136.907  0.00  0.00    -0.335 N 
ATOM     26  H           0     132.282 135.632 137.022  0.00  0.00     0.164 HD
ATOM     27  O           0     135.001 135.518 135.563  0.00  0.00    -0.239 OA
BRANCH  25  28
ATOM     28  C           0     134.046 135.029 138.037  0.00  0.00     0.144 C 
BRANCH  28  29
ATOM     29  C           0     133.313 135.326 139.346  0.00  0.00     0.142 C 
BRANCH  29  30
ATOM     30  N           0     133.699 134.339 140.358  0.00  0.00    -0.359 N 
ATOM     31  C           0     132.788 133.463 140.825  0.00  0.00     0.219 C 
ATOM     32  O           0     131.649 133.491 140.408  0.00  0.00    -0.274 OA
ATOM     33  H           0     134.610 134.316 140.691  0.00  0.00     0.162 HD
BRANCH  31  34
ATOM     34  C           0     133.184 132.446 141.865  0.00  0.00     0.123 C 
BRANCH  34  35
ATOM     35  C           0     134.704 132.460 142.041  0.00  0.00     0.144 C 
BRANCH  35  36
ATOM     36  N           0     135.033 132.834 143.419  0.00  0.00    -0.288 N 
ATOM     37  C           0     135.270 134.100 143.788  0.00  0.00     0.226 A 
ATOM     38  C           0     135.572 134.136 145.271  0.00  0.00     0.112 A 
ATOM     39  O           0     135.240 135.063 143.054  0.00  0.00    -0.273 OA
ATOM     40  C           0     135.478 132.656 145.695  0.00  0.00     0.112 A 
ATOM     41  C           0     135.126 131.940 144.410  0.00  0.00     0.226 A 
ATOM     42  O           0     134.956 130.745 144.295  0.00  0.00    -0.273 OA
ENDBRANCH  35  36
ENDBRANCH  34  35
ENDBRANCH  31  34
ENDBRANCH  29  30
ENDBRANCH  28  29
ENDBRANCH  25  28
ENDBRANCH  23  24
ENDBRANCH  22  23
ENDBRANCH   6  22
BRANCH  18  43
ATOM     43  O           0     131.016 131.503 130.888  0.00  0.00    -0.362 OA
ATOM     44  H           0     131.661 131.667 130.188  0.00  0.00     0.213 HD
ENDBRANCH  18  43
BRANCH  18  45
ATOM     45  O           0     132.695 132.866 131.801  0.00  0.00    -0.362 OA
ATOM     46  H           0     133.368 132.669 132.468  0.00  0.00     0.213 HD
ENDBRANCH  18  45
TORSDOF 11
ENDMDL
MODEL 2
REMARK VINA RESULT:      -8.3      3.247     12.049
REMARK  11 active torsions:
REMARK  status: ('A' for Active; 'I' for Inactive)
REMARK    1  A    between atoms: C_6  and  C_7 
REMARK    2  A    between atoms: C_7  and  O_8 
REMARK    3  A    between atoms: O_8  and  C_9 
REMARK       I    between atoms: C_9  and  N_10 
REMARK    4  A    between atoms: N_10  and  C_11 
REMARK    5  A    between atoms: C_11  and  C_12 
REMARK    6  A    between atoms: C_12  and  N_13 
REMARK       I    between atoms: N_13  and  C_14 
REMARK    7  A    between atoms: C_14  and  C_15 
REMARK    8  A    between atoms: C_15  and  C_16 
REMARK    9  A    between atoms: C_16  and  N_17 
REMARK   10  A    between atoms: C_37  and  O_38 
REMARK   11  A    between atoms: C_37  and  O_39 
ROOT
ATOM      1  N           0     139.531 130.593 146.043  0.00  0.00    -0.235 N 
ATOM      2  H           0     140.330 130.729 145.509  0.00  0.00     0.174 HD
ATOM      3  H           0     139.476 129.839 146.650  0.00  0.00     0.174 HD
ATOM      4  C           0     138.534 131.427 145.948  0.00  0.00     0.672 C 
ATOM      5  N           0     138.567 132.520 145.100  0.00  0.00    -0.218 N 
ATOM      6  C           0     137.303 133.022 144.569  0.00  0.00     0.151 C 
ATOM      7  C           0     136.268 133.264 145.651  0.00  0.00     0.180 C 
ATOM      8  N           0     136.591 134.521 146.360  0.00  0.00    -0.216 N 
ATOM      9  C           0     136.344 134.319 147.696  0.00  0.00     0.670 C 
ATOM     10  N           0     136.165 135.279 148.560  0.00  0.00    -0.235 N 
ATOM     11  H           0     136.204 136.204 148.273  0.00  0.00     0.174 HD
ATOM     12  H           0     135.994 135.067 149.492  0.00  0.00     0.174 HD
ATOM     13  C           0     136.265 132.215 146.753  0.00  0.00     0.217 C 
ATOM     14  N           0     136.307 132.983 148.008  0.00  0.00    -0.191 N 
ATOM     15  N           0     137.383 131.275 146.676  0.00  0.00    -0.183 N 
ATOM     16  C           0     136.978 130.119 147.497  0.00  0.00     0.150 C 
ATOM     17  C           0     135.467 129.953 147.205  0.00  0.00     0.093 C 
ATOM     18  C           0     134.997 131.345 146.714  0.00  0.00     0.209 C 
ATOM     19  H           0     139.408 132.943 144.866  0.00  0.00     0.178 HD
ATOM     20  H           0     136.918 135.339 145.956  0.00  0.00     0.178 HD
ATOM     21  H           0     136.305 132.609 148.903  0.00  0.00     0.180 HD
ENDROOT
BRANCH   6  22
ATOM     22  C           0     136.745 132.003 143.575  0.00  0.00     0.208 C 
BRANCH  22  23
ATOM     23  O           0     136.447 132.666 142.318  0.00  0.00    -0.302 OA
BRANCH  23  24
ATOM     24  C           0     135.170 132.787 141.907  0.00  0.00     0.360 C 
ATOM     25  N           0     134.847 133.701 140.971  0.00  0.00    -0.335 N 
ATOM     26  H           0     135.535 134.272 140.593  0.00  0.00     0.164 HD
ATOM     27  O           0     134.309 132.072 142.381  0.00  0.00    -0.239 OA
BRANCH  25  28
ATOM     28  C           0     133.459 133.833 140.524  0.00  0.00     0.144 C 
BRANCH  28  29
ATOM     29  C           0     133.238 135.234 139.951  0.00  0.00     0.142 C 
BRANCH  29  30
ATOM     30  N           0     134.076 135.414 138.762  0.00  0.00    -0.359 N 
ATOM     31  C           0     133.599 135.086 137.546  0.00  0.00     0.219 C 
ATOM     32  O           0     132.475 134.642 137.434  0.00  0.00    -0.274 OA
ATOM     33  H           0     134.974 135.769 138.852  0.00  0.00     0.162 HD
BRANCH  31  34
ATOM     34  C           0     134.460 135.270 136.323  0.00  0.00     0.123 C 
BRANCH  34  35
ATOM     35  C           0     133.570 135.512 135.103  0.00  0.00     0.144 C 
BRANCH  35  36
ATOM     36  N           0     134.045 134.697 133.982  0.00  0.00    -0.288 N 
ATOM     37  C           0     133.814 133.381 133.896  0.00  0.00     0.226 A 
ATOM     38  C           0     134.433 132.851 132.621  0.00  0.00     0.112 A 
ATOM     39  O           0     133.201 132.721 134.706  0.00  0.00    -0.273 OA
ATOM     40  C           0     135.077 134.099 131.985  0.00  0.00     0.112 A 
ATOM     41  C           0     134.749 135.205 132.963  0.00  0.00     0.226 A 
ATOM     42  O           0     135.073 136.368 132.845  0.00  0.00    -0.273 OA
ENDBRANCH  35  36
ENDBRANCH  34  35
ENDBRANCH  31  34
ENDBRANCH  29  30
ENDBRANCH  28  29
ENDBRANCH  25  28
ENDBRANCH  23  24
ENDBRANCH  22  23
ENDBRANCH   6  22
BRANCH  18  43
ATOM     43  O           0     133.998 131.872 147.590  0.00  0.00    -0.362 OA
ATOM     44  H           0     133.746 131.156 148.188  0.00  0.00     0.213 HD
ENDBRANCH  18  43
BRANCH  18  45
ATOM     45  O           0     134.494 131.260 145.379  0.00  0.00    -0.362 OA
ATOM     46  H           0     133.729 130.667 145.406  0.00  0.00     0.213 HD
ENDBRANCH  18  45
TORSDOF 11
ENDMDL
MODEL 3
REMARK VINA RESULT:      -8.1      2.651     11.806
REMARK  11 active torsions:
REMARK  status: ('A' for Active; 'I' for Inactive)
REMARK    1  A    between atoms: C_6  and  C_7 
REMARK    2  A    between atoms: C_7  and  O_8 
REMARK    3  A    between atoms: O_8  and  C_9 
REMARK       I    between atoms: C_9  and  N_10 
REMARK    4  A    between atoms: N_10  and  C_11 
REMARK    5  A    between atoms: C_11  and  C_12 
REMARK    6  A    between atoms: C_12  and  N_13 
REMARK       I    between atoms: N_13  and  C_14 
REMARK    7  A    between atoms: C_14  and  C_15 
REMARK    8  A    between atoms: C_15  and  C_16 
REMARK    9  A    between atoms: C_16  and  N_17 
REMARK   10  A    between atoms: C_37  and  O_38 
REMARK   11  A    between atoms: C_37  and  O_39 
ROOT
ATOM      1  N           0     139.654 130.925 145.651  0.00  0.00    -0.235 N 
ATOM      2  H           0     140.395 131.148 145.065  0.00  0.00     0.174 HD
ATOM      3  H           0     139.718 130.160 146.244  0.00  0.00     0.174 HD
ATOM      4  C           0     138.576 131.657 145.647  0.00  0.00     0.672 C 
ATOM      5  N           0     138.440 132.762 144.825  0.00  0.00    -0.218 N 
ATOM      6  C           0     137.097 133.144 144.397  0.00  0.00     0.151 C 
ATOM      7  C           0     136.126 133.265 145.555  0.00  0.00     0.180 C 
ATOM      8  N           0     136.374 134.536 146.267  0.00  0.00    -0.216 N 
ATOM      9  C           0     136.246 134.289 147.613  0.00  0.00     0.670 C 
ATOM     10  N           0     136.038 135.212 148.509  0.00  0.00    -0.235 N 
ATOM     11  H           0     135.965 136.142 148.241  0.00  0.00     0.174 HD
ATOM     12  H           0     135.957 134.970 149.446  0.00  0.00     0.174 HD
ATOM     13  C           0     136.306 132.203 146.629  0.00  0.00     0.217 C 
ATOM     14  N           0     136.364 132.952 147.895  0.00  0.00    -0.191 N 
ATOM     15  N           0     137.502 131.380 146.451  0.00  0.00    -0.183 N 
ATOM     16  C           0     137.273 130.177 147.272  0.00  0.00     0.150 C 
ATOM     17  C           0     135.769 129.866 147.085  0.00  0.00     0.093 C 
ATOM     18  C           0     135.129 131.212 146.661  0.00  0.00     0.209 C 
ATOM     19  H           0     139.216 133.270 144.541  0.00  0.00     0.178 HD
ATOM     20  H           0     136.590 135.389 145.860  0.00  0.00     0.178 HD
ATOM     21  H           0     136.464 132.565 148.780  0.00  0.00     0.180 HD
ENDROOT
BRANCH   6  22
ATOM     22  C           0     136.570 132.090 143.421  0.00  0.00     0.208 C 
BRANCH  22  23
ATOM     23  O           0     136.266 132.718 142.148  0.00  0.00    -0.302 OA
BRANCH  23  24
ATOM     24  C           0     134.993 133.033 141.840  0.00  0.00     0.360 C 
ATOM     25  N           0     134.715 133.648 140.674  0.00  0.00    -0.335 N 
ATOM     26  H           0     135.431 133.864 140.056  0.00  0.00     0.164 HD
ATOM     27  O           0     134.096 132.762 142.613  0.00  0.00    -0.239 OA
BRANCH  25  28
ATOM     28  C           0     133.331 133.990 140.338  0.00  0.00     0.144 C 
BRANCH  28  29
ATOM     29  C           0     133.293 135.364 139.665  0.00  0.00     0.142 C 
BRANCH  29  30
ATOM     30  N           0     132.902 135.209 138.261  0.00  0.00    -0.359 N 
ATOM     31  C           0     133.834 135.286 137.291  0.00  0.00     0.219 C 
ATOM     32  O           0     134.996 135.483 137.579  0.00  0.00    -0.274 OA
ATOM     33  H           0     131.973 135.051 138.030  0.00  0.00     0.162 HD
BRANCH  31  34
ATOM     34  C           0     133.433 135.127 135.847  0.00  0.00     0.123 C 
BRANCH  34  35
ATOM     35  C           0     131.911 135.220 135.725  0.00  0.00     0.144 C 
BRANCH  35  36
ATOM     36  N           0     131.394 133.996 135.108  0.00  0.00    -0.288 N 
ATOM     37  C           0     131.138 133.898 133.797  0.00  0.00     0.226 A 
ATOM     38  C           0     130.623 132.508 133.494  0.00  0.00     0.112 A 
ATOM     39  O           0     131.300 134.781 132.983  0.00  0.00    -0.273 OA
ATOM     40  C           0     130.616 131.816 134.872  0.00  0.00     0.112 A 
ATOM     41  C           0     131.133 132.885 135.809  0.00  0.00     0.226 A 
ATOM     42  O           0     131.288 132.758 137.005  0.00  0.00    -0.273 OA
ENDBRANCH  35  36
ENDBRANCH  34  35
ENDBRANCH  31  34
ENDBRANCH  29  30
ENDBRANCH  28  29
ENDBRANCH  25  28
ENDBRANCH  23  24
ENDBRANCH  22  23
ENDBRANCH   6  22
BRANCH  18  43
ATOM     43  O           0     134.151 131.623 147.618  0.00  0.00    -0.362 OA
ATOM     44  H           0     134.067 132.582 147.538  0.00  0.00     0.213 HD
ENDBRANCH  18  43
BRANCH  18  45
ATOM     45  O           0     134.541 131.098 145.363  0.00  0.00    -0.362 OA
ATOM     46  H           0     134.539 130.157 145.139  0.00  0.00     0.213 HD
ENDBRANCH  18  45
TORSDOF 11
ENDMDL
MODEL 4
REMARK VINA RESULT:      -8.1      2.426     11.628
REMARK  11 active torsions:
REMARK  status: ('A' for Active; 'I' for Inactive)
REMARK    1  A    between atoms: C_6  and  C_7 
REMARK    2  A    between atoms: C_7  and  O_8 
REMARK    3  A    between atoms: O_8  and  C_9 
REMARK       I    between atoms: C_9  and  N_10 
REMARK    4  A    between atoms: N_10  and  C_11 
REMARK    5  A    between atoms: C_11  and  C_12 
REMARK    6  A    between atoms: C_12  and  N_13 
REMARK       I    between atoms: N_13  and  C_14 
REMARK    7  A    between atoms: C_14  and  C_15 
REMARK    8  A    between atoms: C_15  and  C_16 
REMARK    9  A    between atoms: C_16  and  N_17 
REMARK   10  A    between atoms: C_37  and  O_38 
REMARK   11  A    between atoms: C_37  and  O_39 
ROOT
ATOM      1  N           0     135.160 130.499 143.299  0.00  0.00    -0.235 N 
ATOM      2  H           0     135.007 130.358 142.352  0.00  0.00     0.174 HD
ATOM      3  H           0     134.705 129.944 143.952  0.00  0.00     0.174 HD
ATOM      4  C           0     135.980 131.431 143.696  0.00  0.00     0.672 C 
ATOM      5  N           0     136.657 132.245 142.804  0.00  0.00    -0.218 N 
ATOM      6  C           0     137.029 133.588 143.238  0.00  0.00     0.151 C 
ATOM      7  C           0     137.761 133.592 144.566  0.00  0.00     0.180 C 
ATOM      8  N           0     139.158 133.160 144.352  0.00  0.00    -0.216 N 
ATOM      9  C           0     139.509 132.351 145.406  0.00  0.00     0.670 C 
ATOM     10  N           0     140.738 132.085 145.747  0.00  0.00    -0.235 N 
ATOM     11  H           0     141.475 132.467 145.243  0.00  0.00     0.174 HD
ATOM     12  H           0     140.917 131.504 146.503  0.00  0.00     0.174 HD
ATOM     13  C           0     137.220 132.591 145.576  0.00  0.00     0.217 C 
ATOM     14  N           0     138.405 131.859 146.055  0.00  0.00    -0.191 N 
ATOM     15  N           0     136.225 131.672 145.022  0.00  0.00    -0.183 N 
ATOM     16  C           0     135.516 131.117 146.189  0.00  0.00     0.150 C 
ATOM     17  C           0     135.388 132.311 147.165  0.00  0.00     0.093 C 
ATOM     18  C           0     136.522 133.287 146.757  0.00  0.00     0.209 C 
ATOM     19  H           0     136.878 131.930 141.913  0.00  0.00     0.178 HD
ATOM     20  H           0     139.725 133.402 143.603  0.00  0.00     0.178 HD
ATOM     21  H           0     138.405 131.152 146.720  0.00  0.00     0.180 HD
ENDROOT
BRANCH   6  22
ATOM     22  C           0     135.761 134.433 143.373  0.00  0.00     0.208 C 
BRANCH  22  23
ATOM     23  O           0     134.711 133.866 142.545  0.00  0.00    -0.302 OA
BRANCH  23  24
ATOM     24  C           0     134.065 134.642 141.653  0.00  0.00     0.360 C 
ATOM     25  N           0     133.794 134.168 140.421  0.00  0.00    -0.335 N 
ATOM     26  H           0     134.064 133.270 140.176  0.00  0.00     0.164 HD
ATOM     27  O           0     133.726 135.767 141.960  0.00  0.00    -0.239 OA
BRANCH  25  28
ATOM     28  C           0     133.090 135.011 139.451  0.00  0.00     0.144 C 
BRANCH  28  29
ATOM     29  C           0     133.968 135.207 138.213  0.00  0.00     0.142 C 
BRANCH  29  30
ATOM     30  N           0     133.119 135.298 137.022  0.00  0.00    -0.359 N 
ATOM     31  C           0     133.675 135.519 135.815  0.00  0.00     0.219 C 
ATOM     32  O           0     134.877 135.643 135.714  0.00  0.00    -0.274 OA
ATOM     33  H           0     132.158 135.198 137.103  0.00  0.00     0.162 HD
BRANCH  31  34
ATOM     34  C           0     132.803 135.613 134.590  0.00  0.00     0.123 C 
BRANCH  34  35
ATOM     35  C           0     131.365 135.239 134.956  0.00  0.00     0.144 C 
BRANCH  35  36
ATOM     36  N           0     131.071 133.889 134.470  0.00  0.00    -0.288 N 
ATOM     37  C           0     131.139 132.807 135.256  0.00  0.00     0.226 A 
ATOM     38  C           0     130.773 131.582 134.447  0.00  0.00     0.112 A 
ATOM     39  O           0     131.439 132.809 136.430  0.00  0.00    -0.273 OA
ATOM     40  C           0     130.489 132.148 133.041  0.00  0.00     0.112 A 
ATOM     41  C           0     130.719 133.634 133.204  0.00  0.00     0.226 A 
ATOM     42  O           0     130.602 134.464 132.328  0.00  0.00    -0.273 OA
ENDBRANCH  35  36
ENDBRANCH  34  35
ENDBRANCH  31  34
ENDBRANCH  29  30
ENDBRANCH  28  29
ENDBRANCH  25  28
ENDBRANCH  23  24
ENDBRANCH  22  23
ENDBRANCH   6  22
BRANCH  18  43
ATOM     43  O           0     137.433 133.473 147.842  0.00  0.00    -0.362 OA
ATOM     44  H           0     136.923 133.844 148.574  0.00  0.00     0.213 HD
ENDBRANCH  18  43
BRANCH  18  45
ATOM     45  O           0     135.976 134.540 146.343  0.00  0.00    -0.362 OA
ATOM     46  H           0     135.234 134.732 146.934  0.00  0.00     0.213 HD
ENDBRANCH  18  45
TORSDOF 11
ENDMDL
MODEL 5
REMARK VINA RESULT:      -8.1      2.293      3.715
REMARK  11 active torsions:
REMARK  status: ('A' for Active; 'I' for Inactive)
REMARK    1  A    between atoms: C_6  and  C_7 
REMARK    2  A    between atoms: C_7  and  O_8 
REMARK    3  A    between atoms: O_8  and  C_9 
REMARK       I    between atoms: C_9  and  N_10 
REMARK    4  A    between atoms: N_10  and  C_11 
REMARK    5  A    between atoms: C_11  and  C_12 
REMARK    6  A    between atoms: C_12  and  N_13 
REMARK       I    between atoms: N_13  and  C_14 
REMARK    7  A    between atoms: C_14  and  C_15 
REMARK    8  A    between atoms: C_15  and  C_16 
REMARK    9  A    between atoms: C_16  and  N_17 
REMARK   10  A    between atoms: C_37  and  O_38 
REMARK   11  A    between atoms: C_37  and  O_39 
ROOT
ATOM      1  N           0     134.740 134.222 132.520  0.00  0.00    -0.235 N 
ATOM      2  H           0     135.370 133.560 132.845  0.00  0.00     0.174 HD
ATOM      3  H           0     134.969 134.773 131.755  0.00  0.00     0.174 HD
ATOM      4  C           0     133.586 134.368 133.106  0.00  0.00     0.672 C 
ATOM      5  N           0     133.211 133.602 134.196  0.00  0.00    -0.218 N 
ATOM      6  C           0     132.274 134.178 135.156  0.00  0.00     0.151 C 
ATOM      7  C           0     131.031 134.742 134.496  0.00  0.00     0.180 C 
ATOM      8  N           0     130.131 133.629 134.124  0.00  0.00    -0.216 N 
ATOM      9  C           0     129.588 133.926 132.898  0.00  0.00     0.670 C 
ATOM     10  N           0     128.503 133.379 132.426  0.00  0.00    -0.235 N 
ATOM     11  H           0     128.027 132.716 132.950  0.00  0.00     0.174 HD
ATOM     12  H           0     128.173 133.634 131.550  0.00  0.00     0.174 HD
ATOM     13  C           0     131.296 135.452 133.177  0.00  0.00     0.217 C 
ATOM     14  N           0     130.328 134.871 132.232  0.00  0.00    -0.191 N 
ATOM     15  N           0     132.666 135.294 132.686  0.00  0.00    -0.183 N 
ATOM     16  C           0     132.853 136.372 131.698  0.00  0.00     0.150 C 
ATOM     17  C           0     132.108 137.584 132.308  0.00  0.00     0.093 C 
ATOM     18  C           0     131.074 136.970 133.286  0.00  0.00     0.209 C 
ATOM     19  H           0     133.562 132.706 134.318  0.00  0.00     0.178 HD
ATOM     20  H           0     129.956 132.833 134.650  0.00  0.00     0.178 HD
ATOM     21  H           0     130.227 135.116 131.299  0.00  0.00     0.180 HD
ENDROOT
BRANCH   6  22
ATOM     22  C           0     132.977 135.302 135.920  0.00  0.00     0.208 C 
BRANCH  22  23
ATOM     23  O           0     132.496 135.330 137.290  0.00  0.00    -0.302 OA
BRANCH  23  24
ATOM     24  C           0     133.288 134.898 138.291  0.00  0.00     0.360 C 
ATOM     25  N           0     132.779 134.732 139.527  0.00  0.00    -0.335 N 
ATOM     26  H           0     131.844 134.923 139.697  0.00  0.00     0.164 HD
ATOM     27  O           0     134.459 134.657 138.078  0.00  0.00    -0.239 OA
BRANCH  25  28
ATOM     28  C           0     133.640 134.261 140.616  0.00  0.00     0.144 C 
BRANCH  28  29
ATOM     29  C           0     132.883 133.228 141.454  0.00  0.00     0.142 C 
BRANCH  29  30
ATOM     30  N           0     133.587 133.020 142.723  0.00  0.00    -0.359 N 
ATOM     31  C           0     134.133 131.820 143.000  0.00  0.00     0.219 C 
ATOM     32  O           0     134.043 130.913 142.199  0.00  0.00    -0.274 OA
ATOM     33  H           0     133.659 133.745 143.363  0.00  0.00     0.162 HD
BRANCH  31  34
ATOM     34  C           0     134.857 131.604 144.304  0.00  0.00     0.123 C 
BRANCH  34  35
ATOM     35  C           0     135.301 132.953 144.872  0.00  0.00     0.144 C 
BRANCH  35  36
ATOM     36  N           0     136.574 133.346 144.263  0.00  0.00    -0.288 N 
ATOM     37  C           0     137.700 132.638 144.420  0.00  0.00     0.226 A 
ATOM     38  C           0     138.821 133.313 143.661  0.00  0.00     0.112 A 
ATOM     39  O           0     137.803 131.616 145.063  0.00  0.00    -0.273 OA
ATOM     40  C           0     138.143 134.551 143.040  0.00  0.00     0.112 A 
ATOM     41  C           0     136.709 134.443 143.508  0.00  0.00     0.226 A 
ATOM     42  O           0     135.822 135.226 143.242  0.00  0.00    -0.273 OA
ENDBRANCH  35  36
ENDBRANCH  34  35
ENDBRANCH  31  34
ENDBRANCH  29  30
ENDBRANCH  28  29
ENDBRANCH  25  28
ENDBRANCH  23  24
ENDBRANCH  22  23
ENDBRANCH   6  22
BRANCH  18  43
ATOM     43  O           0     129.745 137.314 132.888  0.00  0.00    -0.362 OA
ATOM     44  H           0     129.537 138.158 133.311  0.00  0.00     0.213 HD
ENDBRANCH  18  43
BRANCH  18  45
ATOM     45  O           0     131.326 137.413 134.621  0.00  0.00    -0.362 OA
ATOM     46  H           0     132.287 137.456 134.725  0.00  0.00     0.213 HD
ENDBRANCH  18  45
TORSDOF 11
ENDMDL
MODEL 6
REMARK VINA RESULT:      -8.0      1.665      2.503
REMARK  11 active torsions:
REMARK  status: ('A' for Active; 'I' for Inactive)
REMARK    1  A    between atoms: C_6  and  C_7 
REMARK    2  A    between atoms: C_7  and  O_8 
REMARK    3  A    between atoms: O_8  and  C_9 
REMARK       I    between atoms: C_9  and  N_10 
REMARK    4  A    between atoms: N_10  and  C_11 
REMARK    5  A    between atoms: C_11  and  C_12 
REMARK    6  A    between atoms: C_12  and  N_13 
REMARK       I    between atoms: N_13  and  C_14 
REMARK    7  A    between atoms: C_14  and  C_15 
REMARK    8  A    between atoms: C_15  and  C_16 
REMARK    9  A    between atoms: C_16  and  N_17 
REMARK   10  A    between atoms: C_37  and  O_38 
REMARK   11  A    between atoms: C_37  and  O_39 
ROOT
ATOM      1  N           0     133.704 133.872 132.035  0.00  0.00    -0.235 N 
ATOM      2  H           0     134.576 133.965 132.450  0.00  0.00     0.174 HD
ATOM      3  H           0     133.590 134.079 131.095  0.00  0.00     0.174 HD
ATOM      4  C           0     132.686 133.465 132.741  0.00  0.00     0.672 C 
ATOM      5  N           0     132.800 133.152 134.084  0.00  0.00    -0.218 N 
ATOM      6  C           0     131.623 133.316 134.933  0.00  0.00     0.151 C 
ATOM      7  C           0     130.393 132.634 134.368  0.00  0.00     0.180 C 
ATOM      8  N           0     130.492 131.178 134.604  0.00  0.00    -0.216 N 
ATOM      9  C           0     130.017 130.542 133.483  0.00  0.00     0.670 C 
ATOM     10  N           0     129.616 129.302 133.460  0.00  0.00    -0.235 N 
ATOM     11  H           0     129.644 128.768 134.269  0.00  0.00     0.174 HD
ATOM     12  H           0     129.292 128.912 132.632  0.00  0.00     0.174 HD
ATOM     13  C           0     130.259 132.749 132.857  0.00  0.00     0.217 C 
ATOM     14  N           0     130.016 131.374 132.392  0.00  0.00    -0.191 N 
ATOM     15  N           0     131.435 133.324 132.202  0.00  0.00    -0.183 N 
ATOM     16  C           0     130.965 133.763 130.875  0.00  0.00     0.150 C 
ATOM     17  C           0     129.550 134.330 131.137  0.00  0.00     0.093 C 
ATOM     18  C           0     129.083 133.654 132.452  0.00  0.00     0.209 C 
ATOM     19  H           0     133.638 132.832 134.451  0.00  0.00     0.178 HD
ATOM     20  H           0     130.831 130.749 135.405  0.00  0.00     0.178 HD
ATOM     21  H           0     129.875 131.102 131.471  0.00  0.00     0.180 HD
ENDROOT
BRANCH   6  22
ATOM     22  C           0     131.330 134.809 135.089  0.00  0.00     0.208 C 
BRANCH  22  23
ATOM     23  O           0     132.580 135.539 135.199  0.00  0.00    -0.302 OA
BRANCH  23  24
ATOM     24  C           0     133.435 135.263 136.203  0.00  0.00     0.360 C 
ATOM     25  N           0     133.040 135.407 137.483  0.00  0.00    -0.335 N 
ATOM     26  H           0     132.140 135.710 137.682  0.00  0.00     0.164 HD
ATOM     27  O           0     134.562 134.883 135.954  0.00  0.00    -0.239 OA
BRANCH  25  28
ATOM     28  C           0     133.969 135.106 138.575  0.00  0.00     0.144 C 
BRANCH  28  29
ATOM     29  C           0     133.221 135.152 139.909  0.00  0.00     0.142 C 
BRANCH  29  30
ATOM     30  N           0     133.733 134.101 140.792  0.00  0.00    -0.359 N 
ATOM     31  C           0     132.906 133.137 141.242  0.00  0.00     0.219 C 
ATOM     32  O           0     131.738 133.139 140.915  0.00  0.00    -0.274 OA
ATOM     33  H           0     134.667 134.100 141.054  0.00  0.00     0.162 HD
BRANCH  31  34
ATOM     34  C           0     133.433 132.056 142.151  0.00  0.00     0.123 C 
BRANCH  34  35
ATOM     35  C           0     134.943 132.227 142.327  0.00  0.00     0.144 C 
BRANCH  35  36
ATOM     36  N           0     135.228 132.669 143.694  0.00  0.00    -0.288 N 
ATOM     37  C           0     135.508 133.943 143.999  0.00  0.00     0.226 A 
ATOM     38  C           0     135.747 134.056 145.489  0.00  0.00     0.112 A 
ATOM     39  O           0     135.554 134.860 143.209  0.00  0.00    -0.273 OA
ATOM     40  C           0     135.565 132.611 145.995  0.00  0.00     0.112 A 
ATOM     41  C           0     135.237 131.834 144.740  0.00  0.00     0.226 A 
ATOM     42  O           0     135.017 130.642 144.688  0.00  0.00    -0.273 OA
ENDBRANCH  35  36
ENDBRANCH  34  35
ENDBRANCH  31  34
ENDBRANCH  29  30
ENDBRANCH  28  29
ENDBRANCH  25  28
ENDBRANCH  23  24
ENDBRANCH  22  23
ENDBRANCH   6  22
BRANCH  18  43
ATOM     43  O           0     127.906 132.877 132.221  0.00  0.00    -0.362 OA
ATOM     44  H           0     127.481 133.240 131.433  0.00  0.00     0.213 HD
ENDBRANCH  18  43
BRANCH  18  45
ATOM     45  O           0     128.842 134.637 133.460  0.00  0.00    -0.362 OA
ATOM     46  H           0     127.883 134.756 133.511  0.00  0.00     0.213 HD
ENDBRANCH  18  45
TORSDOF 11
ENDMDL
MODEL 7
REMARK VINA RESULT:      -8.0      2.444      3.467
REMARK  11 active torsions:
REMARK  status: ('A' for Active; 'I' for Inactive)
REMARK    1  A    between atoms: C_6  and  C_7 
REMARK    2  A    between atoms: C_7  and  O_8 
REMARK    3  A    between atoms: O_8  and  C_9 
REMARK       I    between atoms: C_9  and  N_10 
REMARK    4  A    between atoms: N_10  and  C_11 
REMARK    5  A    between atoms: C_11  and  C_12 
REMARK    6  A    between atoms: C_12  and  N_13 
REMARK       I    between atoms: N_13  and  C_14 
REMARK    7  A    between atoms: C_14  and  C_15 
REMARK    8  A    between atoms: C_15  and  C_16 
REMARK    9  A    between atoms: C_16  and  N_17 
REMARK   10  A    between atoms: C_37  and  O_38 
REMARK   11  A    between atoms: C_37  and  O_39 
ROOT
ATOM      1  N           0     132.239 133.817 130.920  0.00  0.00    -0.235 N 
ATOM      2  H           0     132.790 134.616 130.929  0.00  0.00     0.174 HD
ATOM      3  H           0     131.626 133.659 130.185  0.00  0.00     0.174 HD
ATOM      4  C           0     132.327 132.953 131.892  0.00  0.00     0.672 C 
ATOM      5  N           0     133.191 133.131 132.959  0.00  0.00    -0.218 N 
ATOM      6  C           0     132.833 132.539 134.244  0.00  0.00     0.151 C 
ATOM      7  C           0     132.477 131.069 134.133  0.00  0.00     0.180 C 
ATOM      8  N           0     133.719 130.278 133.995  0.00  0.00    -0.216 N 
ATOM      9  C           0     133.476 129.281 133.082  0.00  0.00     0.670 C 
ATOM     10  N           0     134.191 128.197 132.975  0.00  0.00    -0.235 N 
ATOM     11  H           0     134.950 128.056 133.563  0.00  0.00     0.174 HD
ATOM     12  H           0     133.965 127.531 132.306  0.00  0.00     0.174 HD
ATOM     13  C           0     131.679 130.716 132.887  0.00  0.00     0.217 C 
ATOM     14  N           0     132.388 129.568 132.297  0.00  0.00    -0.191 N 
ATOM     15  N           0     131.568 131.814 131.927  0.00  0.00    -0.183 N 
ATOM     16  C           0     130.435 131.454 131.054  0.00  0.00     0.150 C 
ATOM     17  C           0     129.403 130.811 132.011  0.00  0.00     0.093 C 
ATOM     18  C           0     130.232 130.320 133.225  0.00  0.00     0.209 C 
ATOM     19  H           0     134.013 133.635 132.854  0.00  0.00     0.178 HD
ATOM     20  H           0     134.553 130.434 134.464  0.00  0.00     0.178 HD
ATOM     21  H           0     132.128 129.093 131.492  0.00  0.00     0.180 HD
ENDROOT
BRANCH   6  22
ATOM     22  C           0     131.632 133.293 134.818  0.00  0.00     0.208 C 
BRANCH  22  23
ATOM     23  O           0     131.966 134.699 134.959  0.00  0.00    -0.302 OA
BRANCH  23  24
ATOM     24  C           0     132.748 135.107 135.977  0.00  0.00     0.360 C 
ATOM     25  N           0     132.394 134.837 137.248  0.00  0.00    -0.335 N 
ATOM     26  H           0     131.576 134.349 137.431  0.00  0.00     0.164 HD
ATOM     27  O           0     133.773 135.718 135.748  0.00  0.00    -0.239 OA
BRANCH  25  28
ATOM     28  C           0     133.245 135.280 138.355  0.00  0.00     0.144 C 
BRANCH  28  29
ATOM     29  C           0     132.847 134.539 139.633  0.00  0.00     0.142 C 
BRANCH  29  30
ATOM     30  N           0     133.966 134.560 140.579  0.00  0.00    -0.359 N 
ATOM     31  C           0     133.894 133.852 141.723  0.00  0.00     0.219 C 
ATOM     32  O           0     132.903 133.197 141.970  0.00  0.00    -0.274 OA
ATOM     33  H           0     134.758 135.084 140.381  0.00  0.00     0.162 HD
BRANCH  31  34
ATOM     34  C           0     135.045 133.873 142.696  0.00  0.00     0.123 C 
BRANCH  34  35
ATOM     35  C           0     136.049 132.781 142.324  0.00  0.00     0.144 C 
BRANCH  35  36
ATOM     36  N           0     137.013 132.611 143.414  0.00  0.00    -0.288 N 
ATOM     37  C           0     138.154 133.309 143.486  0.00  0.00     0.226 A 
ATOM     38  C           0     138.911 132.895 144.730  0.00  0.00     0.112 A 
ATOM     39  O           0     138.519 134.143 142.687  0.00  0.00    -0.273 OA
ATOM     40  C           0     138.005 131.821 145.364  0.00  0.00     0.112 A 
ATOM     41  C           0     136.829 131.743 144.416  0.00  0.00     0.226 A 
ATOM     42  O           0     135.870 131.011 144.543  0.00  0.00    -0.273 OA
ENDBRANCH  35  36
ENDBRANCH  34  35
ENDBRANCH  31  34
ENDBRANCH  29  30
ENDBRANCH  28  29
ENDBRANCH  25  28
ENDBRANCH  23  24
ENDBRANCH  22  23
ENDBRANCH   6  22
BRANCH  18  43
ATOM     43  O           0     130.118 128.902 133.366  0.00  0.00    -0.362 OA
ATOM     44  H           0     129.470 128.608 132.713  0.00  0.00     0.213 HD
ENDBRANCH  18  43
BRANCH  18  45
ATOM     45  O           0     129.803 130.976 134.420  0.00  0.00    -0.362 OA
ATOM     46  H           0     130.603 131.227 134.903  0.00  0.00     0.213 HD
ENDBRANCH  18  45
TORSDOF 11
ENDMDL
MODEL 8
REMARK VINA RESULT:      -7.8      8.146     13.398
REMARK  11 active torsions:
REMARK  status: ('A' for Active; 'I' for Inactive)
REMARK    1  A    between atoms: C_6  and  C_7 
REMARK    2  A    between atoms: C_7  and  O_8 
REMARK    3  A    between atoms: O_8  and  C_9 
REMARK       I    between atoms: C_9  and  N_10 
REMARK    4  A    between atoms: N_10  and  C_11 
REMARK    5  A    between atoms: C_11  and  C_12 
REMARK    6  A    between atoms: C_12  and  N_13 
REMARK       I    between atoms: N_13  and  C_14 
REMARK    7  A    between atoms: C_14  and  C_15 
REMARK    8  A    between atoms: C_15  and  C_16 
REMARK    9  A    between atoms: C_16  and  N_17 
REMARK   10  A    between atoms: C_37  and  O_38 
REMARK   11  A    between atoms: C_37  and  O_39 
ROOT
ATOM      1  N           0     135.498 129.516 145.866  0.00  0.00    -0.235 N 
ATOM      2  H           0     135.692 128.696 145.385  0.00  0.00     0.174 HD
ATOM      3  H           0     135.595 130.374 145.422  0.00  0.00     0.174 HD
ATOM      4  C           0     135.103 129.466 147.107  0.00  0.00     0.672 C 
ATOM      5  N           0     134.945 128.269 147.781  0.00  0.00    -0.218 N 
ATOM      6  C           0     135.121 128.263 149.231  0.00  0.00     0.151 C 
ATOM      7  C           0     134.302 129.335 149.924  0.00  0.00     0.180 C 
ATOM      8  N           0     132.890 128.902 149.988  0.00  0.00    -0.216 N 
ATOM      9  C           0     132.107 130.005 149.744  0.00  0.00     0.670 C 
ATOM     10  N           0     130.848 130.094 150.069  0.00  0.00    -0.235 N 
ATOM     11  H           0     130.407 129.352 150.511  0.00  0.00     0.174 HD
ATOM     12  H           0     130.352 130.903 149.867  0.00  0.00     0.174 HD
ATOM     13  C           0     134.246 130.656 149.173  0.00  0.00     0.217 C 
ATOM     14  N           0     132.815 130.999 149.117  0.00  0.00    -0.191 N 
ATOM     15  N           0     134.823 130.596 147.829  0.00  0.00    -0.183 N 
ATOM     16  C           0     135.086 131.998 147.456  0.00  0.00     0.150 C 
ATOM     17  C           0     135.583 132.657 148.765  0.00  0.00     0.093 C 
ATOM     18  C           0     135.022 131.765 149.902  0.00  0.00     0.209 C 
ATOM     19  H           0     134.722 127.454 147.303  0.00  0.00     0.178 HD
ATOM     20  H           0     132.573 128.004 150.169  0.00  0.00     0.178 HD
ATOM     21  H           0     132.437 131.795 148.711  0.00  0.00     0.180 HD
ENDROOT
BRANCH   6  22
ATOM     22  C           0     136.600 128.490 149.550  0.00  0.00     0.208 C 
BRANCH  22  23
ATOM     23  O           0     137.370 128.465 148.319  0.00  0.00    -0.302 OA
BRANCH  23  24
ATOM     24  C           0     138.501 129.190 148.218  0.00  0.00     0.360 C 
ATOM     25  N           0     138.440 130.484 147.847  0.00  0.00    -0.335 N 
ATOM     26  H           0     137.583 130.894 147.653  0.00  0.00     0.164 HD
ATOM     27  O           0     139.575 128.677 148.462  0.00  0.00    -0.239 OA
BRANCH  25  28
ATOM     28  C           0     139.670 131.273 147.738  0.00  0.00     0.144 C 
BRANCH  28  29
ATOM     29  C           0     140.086 131.369 146.269  0.00  0.00     0.142 C 
BRANCH  29  30
ATOM     30  N           0     139.438 132.530 145.653  0.00  0.00    -0.359 N 
ATOM     31  C           0     138.291 132.373 144.964  0.00  0.00     0.219 C 
ATOM     32  O           0     137.794 131.272 144.854  0.00  0.00    -0.274 OA
ATOM     33  H           0     139.835 133.410 145.741  0.00  0.00     0.162 HD
BRANCH  31  34
ATOM     34  C           0     137.623 133.566 144.330  0.00  0.00     0.123 C 
BRANCH  34  35
ATOM     35  C           0     136.223 133.742 144.920  0.00  0.00     0.144 C 
BRANCH  35  36
ATOM     36  N           0     135.235 133.758 143.838  0.00  0.00    -0.288 N 
ATOM     37  C           0     134.903 134.876 143.178  0.00  0.00     0.226 A 
ATOM     38  C           0     133.866 134.543 142.128  0.00  0.00     0.112 A 
ATOM     39  O           0     135.365 135.977 143.385  0.00  0.00    -0.273 OA
ATOM     40  C           0     133.647 133.026 142.304  0.00  0.00     0.112 A 
ATOM     41  C           0     134.587 132.660 143.431  0.00  0.00     0.226 A 
ATOM     42  O           0     134.732 131.548 143.893  0.00  0.00    -0.273 OA
ENDBRANCH  35  36
ENDBRANCH  34  35
ENDBRANCH  31  34
ENDBRANCH  29  30
ENDBRANCH  28  29
ENDBRANCH  25  28
ENDBRANCH  23  24
ENDBRANCH  22  23
ENDBRANCH   6  22
BRANCH  18  43
ATOM     43  O           0     134.149 132.522 150.743  0.00  0.00    -0.362 OA
ATOM     44  H           0     134.050 133.391 150.334  0.00  0.00     0.213 HD
ENDBRANCH  18  43
BRANCH  18  45
ATOM     45  O           0     136.090 131.204 150.668  0.00  0.00    -0.362 OA
ATOM     46  H           0     135.975 131.513 151.577  0.00  0.00     0.213 HD
ENDBRANCH  18  45
TORSDOF 11
ENDMDL
MODEL 9
REMARK VINA RESULT:      -7.8      2.726     12.289
REMARK  11 active torsions:
REMARK  status: ('A' for Active; 'I' for Inactive)
REMARK    1  A    between atoms: C_6  and  C_7 
REMARK    2  A    between atoms: C_7  and  O_8 
REMARK    3  A    between atoms: O_8  and  C_9 
REMARK       I    between atoms: C_9  and  N_10 
REMARK    4  A    between atoms: N_10  and  C_11 
REMARK    5  A    between atoms: C_11  and  C_12 
REMARK    6  A    between atoms: C_12  and  N_13 
REMARK       I    between atoms: N_13  and  C_14 
REMARK    7  A    between atoms: C_14  and  C_15 
REMARK    8  A    between atoms: C_15  and  C_16 
REMARK    9  A    between atoms: C_16  and  N_17 
REMARK   10  A    between atoms: C_37  and  O_38 
REMARK   11  A    between atoms: C_37  and  O_39 
ROOT
ATOM      1  N           0     134.686 130.270 144.713  0.00  0.00    -0.235 N 
ATOM      2  H           0     134.313 130.029 143.850  0.00  0.00     0.174 HD
ATOM      3  H           0     134.432 129.774 145.507  0.00  0.00     0.174 HD
ATOM      4  C           0     135.534 131.256 144.804  0.00  0.00     0.672 C 
ATOM      5  N           0     135.932 131.989 143.700  0.00  0.00    -0.218 N 
ATOM      6  C           0     136.334 133.378 143.901  0.00  0.00     0.151 C 
ATOM      7  C           0     137.368 133.535 145.000  0.00  0.00     0.180 C 
ATOM      8  N           0     138.690 133.116 144.487  0.00  0.00    -0.216 N 
ATOM      9  C           0     139.325 132.427 145.492  0.00  0.00     0.670 C 
ATOM     10  N           0     140.612 132.226 145.541  0.00  0.00    -0.235 N 
ATOM     11  H           0     141.184 132.571 144.837  0.00  0.00     0.174 HD
ATOM     12  H           0     140.998 131.730 146.280  0.00  0.00     0.174 HD
ATOM     13  C           0     137.139 132.631 146.201  0.00  0.00     0.217 C 
ATOM     14  N           0     138.438 131.980 146.438  0.00  0.00    -0.191 N 
ATOM     15  N           0     136.084 131.637 146.000  0.00  0.00    -0.183 N 
ATOM     16  C           0     135.708 131.188 147.353  0.00  0.00     0.150 C 
ATOM     17  C           0     135.766 132.473 148.214  0.00  0.00     0.093 C 
ATOM     18  C           0     136.718 133.427 147.448  0.00  0.00     0.209 C 
ATOM     19  H           0     135.944 131.590 142.816  0.00  0.00     0.178 HD
ATOM     20  H           0     139.044 133.293 143.602  0.00  0.00     0.178 HD
ATOM     21  H           0     138.634 131.344 147.145  0.00  0.00     0.180 HD
ENDROOT
BRANCH   6  22
ATOM     22  C           0     135.099 134.203 144.267  0.00  0.00     0.208 C 
BRANCH  22  23
ATOM     23  O           0     134.707 135.017 143.130  0.00  0.00    -0.302 OA
BRANCH  23  24
ATOM     24  C           0     133.971 134.479 142.139  0.00  0.00     0.360 C 
ATOM     25  N           0     133.903 135.092 140.941  0.00  0.00    -0.335 N 
ATOM     26  H           0     134.385 135.921 140.793  0.00  0.00     0.164 HD
ATOM     27  O           0     133.368 133.440 142.325  0.00  0.00    -0.239 OA
BRANCH  25  28
ATOM     28  C           0     133.104 134.507 139.862  0.00  0.00     0.144 C 
BRANCH  28  29
ATOM     29  C           0     133.611 135.021 138.514  0.00  0.00     0.142 C 
BRANCH  29  30
ATOM     30  N           0     132.472 135.279 137.629  0.00  0.00    -0.359 N 
ATOM     31  C           0     132.573 135.024 136.310  0.00  0.00     0.219 C 
ATOM     32  O           0     133.607 134.581 135.854  0.00  0.00    -0.274 OA
ATOM     33  H           0     131.645 135.632 137.993  0.00  0.00     0.162 HD
BRANCH  31  34
ATOM     34  C           0     131.402 135.288 135.399  0.00  0.00     0.123 C 
BRANCH  34  35
ATOM     35  C           0     131.736 134.812 133.984  0.00  0.00     0.144 C 
BRANCH  35  36
ATOM     36  N           0     131.465 135.888 133.028  0.00  0.00    -0.288 N 
ATOM     37  C           0     130.278 136.039 132.426  0.00  0.00     0.226 A 
ATOM     38  C           0     130.335 137.242 131.511  0.00  0.00     0.112 A 
ATOM     39  O           0     129.311 135.329 132.594  0.00  0.00    -0.273 OA
ATOM     40  C           0     131.778 137.759 131.682  0.00  0.00     0.112 A 
ATOM     41  C           0     132.383 136.797 132.681  0.00  0.00     0.226 A 
ATOM     42  O           0     133.520 136.843 133.101  0.00  0.00    -0.273 OA
ENDBRANCH  35  36
ENDBRANCH  34  35
ENDBRANCH  31  34
ENDBRANCH  29  30
ENDBRANCH  28  29
ENDBRANCH  25  28
ENDBRANCH  23  24
ENDBRANCH  22  23
ENDBRANCH   6  22
BRANCH  18  43
ATOM     43  O           0     137.857 133.745 148.251  0.00  0.00    -0.362 OA
ATOM     44  H           0     138.435 134.299 147.710  0.00  0.00     0.213 HD
ENDBRANCH  18  43
BRANCH  18  45
ATOM     45  O           0     136.028 134.619 147.067  0.00  0.00    -0.362 OA
ATOM     46  H           0     135.417 134.831 147.786  0.00  0.00     0.213 HD
ENDBRANCH  18  45
TORSDOF 11
ENDMDL
