# created with PyMOL 2.3.4
@<TRIPOS>MOLECULE
ligand_out_0001
46 49 1                 
SMALL
USER_CHARGES
@<TRIPOS>ATOM
1	   N	130.821	133.037	136.567	N.3	1	UNK0	-0.235	
2	   N	130.548	134.750	134.979	N.3	1	UNK0	-0.218	
3	   N	129.144	134.654	132.237	N.3	1	UNK0	-0.216	
4	   N	127.352	133.407	131.328	N.3	1	UNK0	-0.235	
5	   N	129.159	132.395	132.468	N.3	1	UNK0	-0.191	
6	   N	130.754	132.535	134.282	N.3	1	UNK0	-0.183	
7	   N	133.234	135.486	136.907	N.pl3	1	UNK0	-0.335	
8	   N	133.699	134.339	140.358	N.pl3	1	UNK0	-0.359	
9	   N	135.033	132.834	143.419	N.pl3	1	UNK0	-0.288	
10	   C	130.711	133.420	135.326	C.3	1	UNK0	0.672	
11	   C	131.042	135.190	133.677	C.3	1	UNK0	0.151	
12	   C	130.551	134.316	132.539	C.3	1	UNK0	0.180	
13	   C	128.482	133.480	131.972	C.3	1	UNK0	0.670	
14	   C	130.506	132.832	132.871	C.3	1	UNK0	0.217	
15	   C	131.113	131.105	134.322	C.3	1	UNK0	0.150	
16	   C	131.975	130.891	133.054	C.3	1	UNK0	0.093	
17	   C	131.569	132.037	132.093	C.3	1	UNK0	0.209	
18	   C	132.571	135.163	133.694	C.2	1	UNK0	0.208	
19	   C	133.809	135.702	135.707	C.2	1	UNK0	0.360	
20	   C	134.046	135.029	138.037	C.3	1	UNK0	0.144	
21	   C	133.313	135.326	139.346	C.3	1	UNK0	0.142	
22	   C	132.788	133.463	140.825	C.2	1	UNK0	0.219	
23	   C	133.184	132.446	141.865	C.3	1	UNK0	0.123	
24	   C	134.704	132.460	142.041	C.3	1	UNK0	0.144	
25	   C	135.270	134.100	143.788	C.2	1	UNK0	0.226	
26	   C	135.572	134.136	145.271	C.3	1	UNK0	0.112	
27	   C	135.478	132.656	145.695	C.3	1	UNK0	0.112	
28	   C	135.126	131.940	144.410	C.2	1	UNK0	0.226	
29	   O	133.061	136.121	134.668	O.2	1	UNK0	-0.302	
30	   O	135.001	135.518	135.563	O.co2	1	UNK0	-0.239	
31	   O	131.649	133.491	140.408	O.2	1	UNK0	-0.274	
32	   O	135.240	135.063	143.054	O.2	1	UNK0	-0.273	
33	   O	134.956	130.745	144.295	O.2	1	UNK0	-0.273	
34	   O	131.016	131.503	130.888	O.2	1	UNK0	-0.362	
35	   O	132.695	132.866	131.801	O.2	1	UNK0	-0.362	
36	   H	130.790	133.692	137.282	 H	1	UNK0	0.174	
37	   H	130.930	132.096	136.775	 H	1	UNK0	0.174	
38	   H	126.925	134.215	131.003	 H	1	UNK0	0.174	
39	   H	126.936	132.544	131.174	 H	1	UNK0	0.174	
40	   H	130.116	135.373	135.584	 H	1	UNK0	0.178	
41	   H	128.758	135.544	132.229	 H	1	UNK0	0.178	
42	   H	128.810	131.492	132.539	 H	1	UNK0	0.180	
43	   H	132.282	135.632	137.022	 H	1	UNK0	0.164	
44	   H	134.610	134.316	140.691	 H	1	UNK0	0.162	
45	   H	131.661	131.667	130.188	 H	1	UNK0	0.213	
46	   H	133.368	132.669	132.468	 H	1	UNK0	0.213	
@<TRIPOS>BOND
1 1 10 1
2 1 36 1
3 1 37 1
4 2 11 1
5 2 40 1
6 3 13 1
7 3 41 1
8 4 38 1
9 4 39 1
10 5 42 1
11 6 15 1
12 7 20 1
13 7 43 1
14 8 22 1
15 8 44 1
16 9 25 1
17 9 28 1
18 2 10 1
19 6 10 1
20 11 12 1
21 11 18 1
22 3 12 1
23 12 14 1
24 4 13 1
25 5 13 1
26 5 14 1
27 6 14 1
28 14 17 1
29 15 16 1
30 16 17 1
31 17 34 2
32 17 35 2
33 18 29 2
34 7 19 1
35 19 30 2
36 20 21 1
37 8 21 1
38 22 23 1
39 22 31 2
40 23 24 1
41 9 24 1
42 25 26 1
43 25 32 2
44 26 27 1
45 27 28 1
46 28 33 2
47 19 29 2
48 34 45 1
49 35 46 1
@<TRIPOS>SUBSTRUCTURE
1	UNK0	1	GROUP	1 ****	UNK
