# created with PyMOL 2.3.4
@<TRIPOS>MOLECULE
ligand_out_0001
62 66 1                 
SMALL
USER_CHARGES
@<TRIPOS>ATOM
1	   N	133.587	132.634	149.862	N.pl3	1	UNK0	-0.337	
2	   N	133.791	135.423	145.277	N.pl3	1	UNK0	-0.360	
3	   N	134.652	134.791	142.227	N.pl3	1	UNK0	-0.348	
4	   N	132.515	135.840	133.953	N.3	1	UNK0	-0.382	
5	   N	135.830	128.614	147.734	N.3	1	UNK0	-0.218	
6	   N	138.033	128.026	148.314	N.3	1	UNK0	-0.235	
7	   N	137.572	130.123	147.385	N.3	1	UNK0	-0.183	
8	   N	137.001	131.115	145.254	N.3	1	UNK0	-0.191	
9	   N	134.841	130.442	145.462	N.3	1	UNK0	-0.216	
10	   N	135.651	131.016	143.314	N.3	1	UNK0	-0.235	
11	   C	132.912	131.471	149.972	C.2	1	UNK0	0.360	
12	   C	132.904	133.904	150.117	C.3	1	UNK0	0.125	
13	   C	133.940	135.024	150.238	C.3	1	UNK0	0.020	
14	   C	134.038	135.772	148.906	C.3	1	UNK0	0.002	
15	   C	132.672	136.360	148.550	C.3	1	UNK0	0.002	
16	   C	132.610	136.631	147.045	C.3	1	UNK0	0.020	
17	   C	132.732	135.310	146.283	C.3	1	UNK0	0.122	
18	   C	134.156	134.341	144.560	C.2	1	UNK0	0.235	
19	   C	135.245	134.457	143.525	C.3	1	UNK0	0.225	
20	   C	134.835	133.972	141.172	C.2	1	UNK0	0.258	
21	   C	134.240	134.306	139.869	C.3	1	UNK0	0.108	
22	   C	132.780	134.354	139.687	C.2	1	UNK0	0.304	
23	   C	133.014	135.171	137.523	C.2	1	UNK0	0.091	
24	   C	134.404	134.931	137.547	C.3	1	UNK0	-0.001	
25	   C	132.390	135.467	136.324	C.3	1	UNK0	0.067	
26	   C	135.037	134.582	138.763	C.3	1	UNK0	0.037	
27	   C	135.149	135.031	136.360	C.3	1	UNK0	0.016	
28	   C	134.521	135.332	135.189	C.3	1	UNK0	0.030	
29	   C	133.141	135.546	135.158	C.3	1	UNK0	0.032	
30	   C	131.676	137.034	133.835	C.3	1	UNK0	0.118	
31	   C	131.900	137.682	132.466	C.3	1	UNK0	0.026	
32	   C	132.694	134.954	132.800	C.3	1	UNK0	0.118	
33	   C	131.888	133.670	133.013	C.3	1	UNK0	0.026	
34	   C	134.895	130.299	149.217	C.2	1	UNK0	0.208	
35	   C	134.893	129.731	147.797	C.3	1	UNK0	0.151	
36	   C	137.184	128.887	147.829	C.3	1	UNK0	0.672	
37	   C	136.736	131.111	146.702	C.3	1	UNK0	0.217	
38	   C	138.888	130.770	147.541	C.3	1	UNK0	0.150	
39	   C	135.245	130.843	146.827	C.3	1	UNK0	0.180	
40	   C	137.128	132.469	147.308	C.3	1	UNK0	0.209	
41	   C	135.821	130.867	144.598	C.3	1	UNK0	0.670	
42	   C	138.556	132.244	147.868	C.3	1	UNK0	0.093	
43	   O	131.738	131.479	150.283	O.co2	1	UNK0	-0.239	
44	   O	133.609	133.276	144.748	O.2	1	UNK0	-0.272	
45	   O	135.493	132.955	141.298	O.2	1	UNK0	-0.267	
46	   O	132.304	135.128	138.678	O.2	1	UNK0	-0.274	
47	   O	132.027	133.734	140.416	O.co2	1	UNK0	-0.259	
48	   O	133.540	130.304	149.738	O.2	1	UNK0	-0.302	
49	   O	137.142	133.484	146.303	O.2	1	UNK0	-0.362	
50	   O	136.230	132.821	148.362	O.2	1	UNK0	-0.362	
51	   H	134.525	132.628	149.614	 H	1	UNK0	0.164	
52	   H	134.229	136.274	145.127	 H	1	UNK0	0.162	
53	   H	134.128	135.600	142.126	 H	1	UNK0	0.163	
54	   H	135.513	127.703	147.630	 H	1	UNK0	0.178	
55	   H	137.723	127.160	148.623	 H	1	UNK0	0.174	
56	   H	138.977	128.248	148.362	 H	1	UNK0	0.174	
57	   H	134.030	129.967	145.220	 H	1	UNK0	0.178	
58	   H	134.789	130.823	142.913	 H	1	UNK0	0.174	
59	   H	136.387	131.321	142.760	 H	1	UNK0	0.174	
60	   H	137.862	131.267	144.835	 H	1	UNK0	0.180	
61	   H	136.363	134.038	146.453	 H	1	UNK0	0.213	
62	   H	136.530	133.671	148.713	 H	1	UNK0	0.213	
@<TRIPOS>BOND
1 1 12 1
2 1 51 1
3 2 18 1
4 2 52 1
5 3 20 1
6 3 53 1
7 4 30 1
8 4 32 1
9 5 36 1
10 5 54 1
11 6 55 1
12 6 56 1
13 7 37 1
14 7 38 1
15 8 41 1
16 8 60 1
17 9 41 1
18 9 57 1
19 10 58 1
20 10 59 1
21 1 11 1
22 11 43 2
23 11 48 2
24 12 13 1
25 13 14 1
26 14 15 1
27 15 16 1
28 16 17 1
29 2 17 1
30 18 19 1
31 18 44 2
32 3 19 1
33 20 21 1
34 20 45 2
35 21 22 1
36 21 26 1
37 22 46 2
38 22 47 2
39 23 24 1
40 23 25 1
41 24 26 1
42 24 27 1
43 25 29 1
44 27 28 1
45 28 29 1
46 4 29 1
47 30 31 1
48 32 33 1
49 34 35 1
50 5 35 1
51 35 39 1
52 6 36 1
53 7 36 1
54 8 37 1
55 37 39 1
56 37 40 1
57 38 42 1
58 9 39 1
59 40 42 1
60 40 49 2
61 40 50 2
62 10 41 1
63 23 46 2
64 34 48 2
65 49 61 1
66 50 62 1
@<TRIPOS>SUBSTRUCTURE
1	UNK0	1	GROUP	1 ****	UNK
