MODEL 1
REMARK VINA RESULT:      -6.8      0.000      0.000
REMARK  18 active torsions:
REMARK  status: ('A' for Active; 'I' for Inactive)
REMARK    1  A    between atoms: C_6  and  C_7 
REMARK    2  A    between atoms: C_7  and  O_8 
REMARK    3  A    between atoms: O_8  and  C_9 
REMARK       I    between atoms: C_9  and  N_10 
REMARK    4  A    between atoms: N_10  and  C_11 
REMARK    5  A    between atoms: C_11  and  C_12 
REMARK    6  A    between atoms: C_12  and  C_13 
REMARK    7  A    between atoms: C_13  and  C_14 
REMARK    8  A    between atoms: C_14  and  C_15 
REMARK    9  A    between atoms: C_15  and  C_16 
REMARK   10  A    between atoms: C_16  and  N_17 
REMARK       I    between atoms: N_17  and  C_18 
REMARK   11  A    between atoms: C_18  and  C_19 
REMARK   12  A    between atoms: C_19  and  N_20 
REMARK       I    between atoms: N_20  and  C_21 
REMARK   13  A    between atoms: C_21  and  C_22 
REMARK   14  A    between atoms: C_27  and  N_28 
REMARK   15  A    between atoms: N_28  and  C_29 
REMARK   16  A    between atoms: N_28  and  C_31 
REMARK   17  A    between atoms: C_52  and  O_53 
REMARK   18  A    between atoms: C_52  and  O_54 
ROOT
ATOM      1  C           0     132.912 131.471 149.972  0.00  0.00     0.360 C 
ATOM      2  N           0     133.587 132.634 149.862  0.00  0.00    -0.337 N 
ATOM      3  O           0     131.738 131.479 150.283  0.00  0.00    -0.239 OA
ATOM      4  H           0     134.525 132.628 149.614  0.00  0.00     0.164 HD
ENDROOT
BRANCH   2   5
ATOM      5  C           0     132.904 133.904 150.117  0.00  0.00     0.125 C 
BRANCH   5   6
ATOM      6  C           0     133.940 135.024 150.238  0.00  0.00     0.020 C 
BRANCH   6   7
ATOM      7  C           0     134.038 135.772 148.906  0.00  0.00     0.002 C 
BRANCH   7   8
ATOM      8  C           0     132.672 136.360 148.550  0.00  0.00     0.002 C 
BRANCH   8   9
ATOM      9  C           0     132.610 136.631 147.045  0.00  0.00     0.020 C 
BRANCH   9  10
ATOM     10  C           0     132.732 135.310 146.283  0.00  0.00     0.122 C 
BRANCH  10  11
ATOM     11  N           0     133.791 135.423 145.277  0.00  0.00    -0.360 N 
ATOM     12  C           0     134.156 134.341 144.560  0.00  0.00     0.235 C 
ATOM     13  O           0     133.609 133.276 144.748  0.00  0.00    -0.272 OA
ATOM     14  H           0     134.229 136.274 145.127  0.00  0.00     0.162 HD
BRANCH  12  15
ATOM     15  C           0     135.245 134.457 143.525  0.00  0.00     0.225 C 
BRANCH  15  16
ATOM     16  N           0     134.652 134.791 142.227  0.00  0.00    -0.348 N 
ATOM     17  C           0     134.835 133.972 141.172  0.00  0.00     0.258 C 
ATOM     18  O           0     135.493 132.955 141.298  0.00  0.00    -0.267 OA
ATOM     19  H           0     134.128 135.600 142.126  0.00  0.00     0.163 HD
BRANCH  17  20
ATOM     20  C           0     134.240 134.306 139.869  0.00  0.00     0.108 C 
ATOM     21  C           0     132.780 134.354 139.687  0.00  0.00     0.304 C 
ATOM     22  O           0     132.304 135.128 138.678  0.00  0.00    -0.274 OA
ATOM     23  O           0     132.027 133.734 140.416  0.00  0.00    -0.259 OA
ATOM     24  C           0     133.014 135.171 137.523  0.00  0.00     0.091 A 
ATOM     25  C           0     134.404 134.931 137.547  0.00  0.00    -0.001 A 
ATOM     26  C           0     132.390 135.467 136.324  0.00  0.00     0.067 A 
ATOM     27  C           0     135.037 134.582 138.763  0.00  0.00     0.037 C 
ATOM     28  C           0     135.149 135.031 136.360  0.00  0.00     0.016 A 
ATOM     29  C           0     134.521 135.332 135.189  0.00  0.00     0.030 A 
ATOM     30  C           0     133.141 135.546 135.158  0.00  0.00     0.032 A 
BRANCH  30  31
ATOM     31  N           0     132.515 135.840 133.953  0.00  0.00    -0.382 N 
BRANCH  31  32
ATOM     32  C           0     131.676 137.034 133.835  0.00  0.00     0.118 C 
ATOM     33  C           0     131.900 137.682 132.466  0.00  0.00     0.026 C 
ENDBRANCH  31  32
BRANCH  31  34
ATOM     34  C           0     132.694 134.954 132.800  0.00  0.00     0.118 C 
ATOM     35  C           0     131.888 133.670 133.013  0.00  0.00     0.026 C 
ENDBRANCH  31  34
ENDBRANCH  30  31
ENDBRANCH  17  20
ENDBRANCH  15  16
ENDBRANCH  12  15
ENDBRANCH  10  11
ENDBRANCH   9  10
ENDBRANCH   8   9
ENDBRANCH   7   8
ENDBRANCH   6   7
ENDBRANCH   5   6
ENDBRANCH   2   5
BRANCH   1  36
ATOM     36  O           0     133.540 130.304 149.738  0.00  0.00    -0.302 OA
BRANCH  36  37
ATOM     37  C           0     134.895 130.299 149.217  0.00  0.00     0.208 C 
BRANCH  37  38
ATOM     38  C           0     134.893 129.731 147.797  0.00  0.00     0.151 C 
ATOM     39  N           0     135.830 128.614 147.734  0.00  0.00    -0.218 N 
ATOM     40  C           0     137.184 128.887 147.829  0.00  0.00     0.672 C 
ATOM     41  H           0     135.513 127.703 147.630  0.00  0.00     0.178 HD
ATOM     42  N           0     138.033 128.026 148.314  0.00  0.00    -0.235 N 
ATOM     43  N           0     137.572 130.123 147.385  0.00  0.00    -0.183 N 
ATOM     44  H           0     137.723 127.160 148.623  0.00  0.00     0.174 HD
ATOM     45  H           0     138.977 128.248 148.362  0.00  0.00     0.174 HD
ATOM     46  C           0     136.736 131.111 146.702  0.00  0.00     0.217 C 
ATOM     47  C           0     138.888 130.770 147.541  0.00  0.00     0.150 C 
ATOM     48  C           0     135.245 130.843 146.827  0.00  0.00     0.180 C 
ATOM     49  C           0     137.128 132.469 147.308  0.00  0.00     0.209 C 
ATOM     50  N           0     137.001 131.115 145.254  0.00  0.00    -0.191 N 
ATOM     51  N           0     134.841 130.442 145.462  0.00  0.00    -0.216 N 
ATOM     52  C           0     135.821 130.867 144.598  0.00  0.00     0.670 C 
ATOM     53  H           0     134.030 129.967 145.220  0.00  0.00     0.178 HD
ATOM     54  N           0     135.651 131.016 143.314  0.00  0.00    -0.235 N 
ATOM     55  H           0     134.789 130.823 142.913  0.00  0.00     0.174 HD
ATOM     56  H           0     136.387 131.321 142.760  0.00  0.00     0.174 HD
ATOM     57  C           0     138.556 132.244 147.868  0.00  0.00     0.093 C 
ATOM     58  H           0     137.862 131.267 144.835  0.00  0.00     0.180 HD
BRANCH  49  59
ATOM     59  O           0     137.142 133.484 146.303  0.00  0.00    -0.362 OA
ATOM     60  H           0     136.363 134.038 146.453  0.00  0.00     0.213 HD
ENDBRANCH  49  59
BRANCH  49  61
ATOM     61  O           0     136.230 132.821 148.362  0.00  0.00    -0.362 OA
ATOM     62  H           0     136.530 133.671 148.713  0.00  0.00     0.213 HD
ENDBRANCH  49  61
ENDBRANCH  37  38
ENDBRANCH  36  37
ENDBRANCH   1  36
TORSDOF 18
ENDMDL
MODEL 2
REMARK VINA RESULT:      -6.6      3.992      7.049
REMARK  18 active torsions:
REMARK  status: ('A' for Active; 'I' for Inactive)
REMARK    1  A    between atoms: C_6  and  C_7 
REMARK    2  A    between atoms: C_7  and  O_8 
REMARK    3  A    between atoms: O_8  and  C_9 
REMARK       I    between atoms: C_9  and  N_10 
REMARK    4  A    between atoms: N_10  and  C_11 
REMARK    5  A    between atoms: C_11  and  C_12 
REMARK    6  A    between atoms: C_12  and  C_13 
REMARK    7  A    between atoms: C_13  and  C_14 
REMARK    8  A    between atoms: C_14  and  C_15 
REMARK    9  A    between atoms: C_15  and  C_16 
REMARK   10  A    between atoms: C_16  and  N_17 
REMARK       I    between atoms: N_17  and  C_18 
REMARK   11  A    between atoms: C_18  and  C_19 
REMARK   12  A    between atoms: C_19  and  N_20 
REMARK       I    between atoms: N_20  and  C_21 
REMARK   13  A    between atoms: C_21  and  C_22 
REMARK   14  A    between atoms: C_27  and  N_28 
REMARK   15  A    between atoms: N_28  and  C_29 
REMARK   16  A    between atoms: N_28  and  C_31 
REMARK   17  A    between atoms: C_52  and  O_53 
REMARK   18  A    between atoms: C_52  and  O_54 
ROOT
ATOM      1  C           0     137.809 133.171 143.246  0.00  0.00     0.360 C 
ATOM      2  N           0     136.702 132.417 143.092  0.00  0.00    -0.337 N 
ATOM      3  O           0     137.937 134.199 142.611  0.00  0.00    -0.239 OA
ATOM      4  H           0     136.600 131.596 143.599  0.00  0.00     0.164 HD
ENDROOT
BRANCH   2   5
ATOM      5  C           0     135.654 132.838 142.160  0.00  0.00     0.125 C 
BRANCH   5   6
ATOM      6  C           0     134.410 131.971 142.367  0.00  0.00     0.020 C 
BRANCH   6   7
ATOM      7  C           0     133.178 132.712 141.841  0.00  0.00     0.002 C 
BRANCH   7   8
ATOM      8  C           0     133.613 134.029 141.197  0.00  0.00     0.002 C 
BRANCH   8   9
ATOM      9  C           0     132.881 134.213 139.866  0.00  0.00     0.020 C 
BRANCH   9  10
ATOM     10  C           0     133.576 135.302 139.047  0.00  0.00     0.122 C 
BRANCH  10  11
ATOM     11  N           0     133.005 135.337 137.697  0.00  0.00    -0.360 N 
ATOM     12  C           0     133.785 135.650 136.644  0.00  0.00     0.235 C 
ATOM     13  O           0     134.958 135.905 136.813  0.00  0.00    -0.272 OA
ATOM     14  H           0     132.067 135.135 137.562  0.00  0.00     0.162 HD
BRANCH  12  15
ATOM     15  C           0     133.199 135.686 135.257  0.00  0.00     0.225 C 
BRANCH  15  16
ATOM     16  N           0     132.681 134.359 134.911  0.00  0.00    -0.348 N 
ATOM     17  C           0     133.488 133.451 134.328  0.00  0.00     0.258 C 
ATOM     18  O           0     134.648 133.734 134.089  0.00  0.00    -0.267 OA
ATOM     19  H           0     131.757 134.135 135.102  0.00  0.00     0.163 HD
BRANCH  17  20
ATOM     20  C           0     132.968 132.120 133.981  0.00  0.00     0.108 C 
ATOM     21  C           0     131.706 131.621 134.553  0.00  0.00     0.304 C 
ATOM     22  O           0     131.038 130.670 133.851  0.00  0.00    -0.274 OA
ATOM     23  O           0     131.273 132.048 135.607  0.00  0.00    -0.259 OA
ATOM     24  C           0     131.770 129.730 133.202  0.00  0.00     0.091 A 
ATOM     25  C           0     133.084 130.030 132.786  0.00  0.00    -0.001 A 
ATOM     26  C           0     131.231 128.485 132.927  0.00  0.00     0.067 A 
ATOM     27  C           0     133.654 131.284 133.106  0.00  0.00     0.037 C 
ATOM     28  C           0     133.821 129.076 132.065  0.00  0.00     0.016 A 
ATOM     29  C           0     133.274 127.859 131.795  0.00  0.00     0.030 A 
ATOM     30  C           0     131.982 127.550 132.226  0.00  0.00     0.032 A 
BRANCH  30  31
ATOM     31  N           0     131.443 126.299 131.953  0.00  0.00    -0.382 N 
BRANCH  31  32
ATOM     32  C           0     132.114 125.089 132.434  0.00  0.00     0.118 C 
ATOM     33  C           0     132.081 125.060 133.964  0.00  0.00     0.026 C 
ENDBRANCH  31  32
BRANCH  31  34
ATOM     34  C           0     130.199 126.190 131.186  0.00  0.00     0.118 C 
ATOM     35  C           0     129.044 125.853 132.131  0.00  0.00     0.026 C 
ENDBRANCH  31  34
ENDBRANCH  30  31
ENDBRANCH  17  20
ENDBRANCH  15  16
ENDBRANCH  12  15
ENDBRANCH  10  11
ENDBRANCH   9  10
ENDBRANCH   8   9
ENDBRANCH   7   8
ENDBRANCH   6   7
ENDBRANCH   5   6
ENDBRANCH   2   5
BRANCH   1  36
ATOM     36  O           0     138.773 132.784 144.102  0.00  0.00    -0.302 OA
BRANCH  36  37
ATOM     37  C           0     138.504 131.743 145.077  0.00  0.00     0.208 C 
BRANCH  37  38
ATOM     38  C           0     138.670 132.309 146.488  0.00  0.00     0.151 C 
ATOM     39  N           0     139.579 131.449 147.238  0.00  0.00    -0.218 N 
ATOM     40  C           0     139.143 130.184 147.592  0.00  0.00     0.672 C 
ATOM     41  H           0     140.466 131.754 147.483  0.00  0.00     0.178 HD
ATOM     42  N           0     139.965 129.185 147.753  0.00  0.00    -0.235 N 
ATOM     43  N           0     137.789 130.047 147.754  0.00  0.00    -0.183 N 
ATOM     44  H           0     140.918 129.316 147.625  0.00  0.00     0.174 HD
ATOM     45  H           0     139.625 128.312 148.005  0.00  0.00     0.174 HD
ATOM     46  C           0     136.792 131.118 147.732  0.00  0.00     0.217 C 
ATOM     47  C           0     137.018 128.802 147.926  0.00  0.00     0.150 C 
ATOM     48  C           0     137.303 132.419 147.134  0.00  0.00     0.180 C 
ATOM     49  C           0     135.600 130.551 146.943  0.00  0.00     0.209 C 
ATOM     50  N           0     136.366 131.469 149.097  0.00  0.00    -0.191 N 
ATOM     51  N           0     137.384 133.335 148.292  0.00  0.00    -0.216 N 
ATOM     52  C           0     136.605 132.807 149.293  0.00  0.00     0.670 C 
ATOM     53  H           0     137.893 134.159 148.337  0.00  0.00     0.178 HD
ATOM     54  N           0     136.149 133.492 150.304  0.00  0.00    -0.235 N 
ATOM     55  H           0     136.355 134.436 150.382  0.00  0.00     0.174 HD
ATOM     56  H           0     135.602 133.057 150.977  0.00  0.00     0.174 HD
ATOM     57  C           0     135.749 129.014 147.069  0.00  0.00     0.093 C 
ATOM     58  H           0     135.982 130.861 149.747  0.00  0.00     0.180 HD
BRANCH  49  59
ATOM     59  O           0     134.365 130.980 147.520  0.00  0.00    -0.362 OA
ATOM     60  H           0     133.774 130.214 147.517  0.00  0.00     0.213 HD
ENDBRANCH  49  59
BRANCH  49  61
ATOM     61  O           0     135.677 130.949 145.573  0.00  0.00    -0.362 OA
ATOM     62  H           0     134.780 130.889 145.214  0.00  0.00     0.213 HD
ENDBRANCH  49  61
ENDBRANCH  37  38
ENDBRANCH  36  37
ENDBRANCH   1  36
TORSDOF 18
ENDMDL
MODEL 3
REMARK VINA RESULT:      -6.6      1.848      2.605
REMARK  18 active torsions:
REMARK  status: ('A' for Active; 'I' for Inactive)
REMARK    1  A    between atoms: C_6  and  C_7 
REMARK    2  A    between atoms: C_7  and  O_8 
REMARK    3  A    between atoms: O_8  and  C_9 
REMARK       I    between atoms: C_9  and  N_10 
REMARK    4  A    between atoms: N_10  and  C_11 
REMARK    5  A    between atoms: C_11  and  C_12 
REMARK    6  A    between atoms: C_12  and  C_13 
REMARK    7  A    between atoms: C_13  and  C_14 
REMARK    8  A    between atoms: C_14  and  C_15 
REMARK    9  A    between atoms: C_15  and  C_16 
REMARK   10  A    between atoms: C_16  and  N_17 
REMARK       I    between atoms: N_17  and  C_18 
REMARK   11  A    between atoms: C_18  and  C_19 
REMARK   12  A    between atoms: C_19  and  N_20 
REMARK       I    between atoms: N_20  and  C_21 
REMARK   13  A    between atoms: C_21  and  C_22 
REMARK   14  A    between atoms: C_27  and  N_28 
REMARK   15  A    between atoms: N_28  and  C_29 
REMARK   16  A    between atoms: N_28  and  C_31 
REMARK   17  A    between atoms: C_52  and  O_53 
REMARK   18  A    between atoms: C_52  and  O_54 
ROOT
ATOM      1  C           0     133.325 133.428 150.974  0.00  0.00     0.360 C 
ATOM      2  N           0     133.850 134.660 151.125  0.00  0.00    -0.337 N 
ATOM      3  O           0     132.137 133.297 150.758  0.00  0.00    -0.239 OA
ATOM      4  H           0     134.799 134.765 151.297  0.00  0.00     0.164 HD
ENDROOT
BRANCH   2   5
ATOM      5  C           0     132.988 135.840 151.030  0.00  0.00     0.125 C 
BRANCH   5   6
ATOM      6  C           0     133.446 136.713 149.859  0.00  0.00     0.020 C 
BRANCH   6   7
ATOM      7  C           0     132.221 137.278 149.135  0.00  0.00     0.002 C 
BRANCH   7   8
ATOM      8  C           0     132.132 136.669 147.735  0.00  0.00     0.002 C 
BRANCH   8   9
ATOM      9  C           0     133.352 135.779 147.487  0.00  0.00     0.020 C 
BRANCH   9  10
ATOM     10  C           0     133.075 134.851 146.302  0.00  0.00     0.122 C 
BRANCH  10  11
ATOM     11  N           0     133.966 135.199 145.192  0.00  0.00    -0.360 N 
ATOM     12  C           0     134.208 134.301 144.217  0.00  0.00     0.235 C 
ATOM     13  O           0     133.690 133.206 144.259  0.00  0.00    -0.272 OA
ATOM     14  H           0     134.381 136.074 145.159  0.00  0.00     0.162 HD
BRANCH  12  15
ATOM     15  C           0     135.125 134.658 143.075  0.00  0.00     0.225 C 
BRANCH  15  16
ATOM     16  N           0     134.534 134.202 141.814  0.00  0.00    -0.348 N 
ATOM     17  C           0     133.768 135.040 141.087  0.00  0.00     0.258 C 
ATOM     18  O           0     133.569 136.176 141.478  0.00  0.00    -0.267 OA
ATOM     19  H           0     134.693 133.298 141.502  0.00  0.00     0.163 HD
BRANCH  17  20
ATOM     20  C           0     133.175 134.583 139.821  0.00  0.00     0.108 C 
ATOM     21  C           0     132.259 133.431 139.780  0.00  0.00     0.304 C 
ATOM     22  O           0     131.380 133.371 138.746  0.00  0.00    -0.274 OA
ATOM     23  O           0     132.280 132.571 140.641  0.00  0.00    -0.259 OA
ATOM     24  C           0     131.804 133.794 137.529  0.00  0.00     0.091 A 
ATOM     25  C           0     132.835 134.754 137.441  0.00  0.00    -0.001 A 
ATOM     26  C           0     131.221 133.307 136.372  0.00  0.00     0.067 A 
ATOM     27  C           0     133.464 135.220 138.619  0.00  0.00     0.037 C 
ATOM     28  C           0     133.234 135.233 136.183  0.00  0.00     0.016 A 
ATOM     29  C           0     132.645 134.749 135.054  0.00  0.00     0.030 A 
ATOM     30  C           0     131.641 133.781 135.136  0.00  0.00     0.032 A 
BRANCH  30  31
ATOM     31  N           0     131.059 133.289 133.975  0.00  0.00    -0.382 N 
BRANCH  31  32
ATOM     32  C           0     130.866 131.847 133.805  0.00  0.00     0.118 C 
ATOM     33  C           0     131.876 131.314 132.787  0.00  0.00     0.026 C 
ENDBRANCH  31  32
BRANCH  31  34
ATOM     34  C           0     130.636 134.214 132.920  0.00  0.00     0.118 C 
ATOM     35  C           0     129.167 133.953 132.573  0.00  0.00     0.026 C 
ENDBRANCH  31  34
ENDBRANCH  30  31
ENDBRANCH  17  20
ENDBRANCH  15  16
ENDBRANCH  12  15
ENDBRANCH  10  11
ENDBRANCH   9  10
ENDBRANCH   8   9
ENDBRANCH   7   8
ENDBRANCH   6   7
ENDBRANCH   5   6
ENDBRANCH   2   5
BRANCH   1  36
ATOM     36  O           0     134.117 132.343 151.061  0.00  0.00    -0.302 OA
BRANCH  36  37
ATOM     37  C           0     135.098 132.075 150.024  0.00  0.00     0.208 C 
BRANCH  37  38
ATOM     38  C           0     134.380 131.810 148.700  0.00  0.00     0.151 C 
ATOM     39  N           0     133.340 130.810 148.918  0.00  0.00    -0.218 N 
ATOM     40  C           0     133.728 129.509 149.187  0.00  0.00     0.672 C 
ATOM     41  H           0     132.402 131.049 148.876  0.00  0.00     0.178 HD
ATOM     42  N           0     132.995 128.699 149.898  0.00  0.00    -0.235 N 
ATOM     43  N           0     134.936 129.129 148.664  0.00  0.00    -0.183 N 
ATOM     44  H           0     132.146 129.002 150.257  0.00  0.00     0.174 HD
ATOM     45  H           0     133.295 127.791 150.064  0.00  0.00     0.174 HD
ATOM     46  C           0     135.775 129.901 147.746  0.00  0.00     0.217 C 
ATOM     47  C           0     135.698 127.898 148.943  0.00  0.00     0.150 C 
ATOM     48  C           0     135.404 131.374 147.669  0.00  0.00     0.180 C 
ATOM     49  C           0     137.216 129.696 148.238  0.00  0.00     0.209 C 
ATOM     50  N           0     135.641 129.404 146.366  0.00  0.00    -0.191 N 
ATOM     51  N           0     134.827 131.525 146.316  0.00  0.00    -0.216 N 
ATOM     52  C           0     135.231 130.445 145.570  0.00  0.00     0.670 C 
ATOM     53  H           0     134.266 132.254 146.011  0.00  0.00     0.178 HD
ATOM     54  N           0     135.226 130.412 144.267  0.00  0.00    -0.235 N 
ATOM     55  H           0     134.923 131.183 143.764  0.00  0.00     0.174 HD
ATOM     56  H           0     135.526 129.615 143.801  0.00  0.00     0.174 HD
ATOM     57  C           0     137.168 128.368 149.035  0.00  0.00     0.093 C 
ATOM     58  H           0     135.815 128.498 146.070  0.00  0.00     0.180 HD
BRANCH  49  59
ATOM     59  O           0     138.115 129.581 147.133  0.00  0.00    -0.362 OA
ATOM     60  H           0     137.582 129.656 146.329  0.00  0.00     0.213 HD
ENDBRANCH  49  59
BRANCH  49  61
ATOM     61  O           0     137.609 130.774 149.090  0.00  0.00    -0.362 OA
ATOM     62  H           0     138.270 131.288 148.605  0.00  0.00     0.213 HD
ENDBRANCH  49  61
ENDBRANCH  37  38
ENDBRANCH  36  37
ENDBRANCH   1  36
TORSDOF 18
ENDMDL
MODEL 4
REMARK VINA RESULT:      -6.3      3.013      5.969
REMARK  18 active torsions:
REMARK  status: ('A' for Active; 'I' for Inactive)
REMARK    1  A    between atoms: C_6  and  C_7 
REMARK    2  A    between atoms: C_7  and  O_8 
REMARK    3  A    between atoms: O_8  and  C_9 
REMARK       I    between atoms: C_9  and  N_10 
REMARK    4  A    between atoms: N_10  and  C_11 
REMARK    5  A    between atoms: C_11  and  C_12 
REMARK    6  A    between atoms: C_12  and  C_13 
REMARK    7  A    between atoms: C_13  and  C_14 
REMARK    8  A    between atoms: C_14  and  C_15 
REMARK    9  A    between atoms: C_15  and  C_16 
REMARK   10  A    between atoms: C_16  and  N_17 
REMARK       I    between atoms: N_17  and  C_18 
REMARK   11  A    between atoms: C_18  and  C_19 
REMARK   12  A    between atoms: C_19  and  N_20 
REMARK       I    between atoms: N_20  and  C_21 
REMARK   13  A    between atoms: C_21  and  C_22 
REMARK   14  A    between atoms: C_27  and  N_28 
REMARK   15  A    between atoms: N_28  and  C_29 
REMARK   16  A    between atoms: N_28  and  C_31 
REMARK   17  A    between atoms: C_52  and  O_53 
REMARK   18  A    between atoms: C_52  and  O_54 
ROOT
ATOM      1  C           0     137.867 132.290 147.319  0.00  0.00     0.360 C 
ATOM      2  N           0     137.188 131.692 146.320  0.00  0.00    -0.337 N 
ATOM      3  O           0     138.939 132.815 147.094  0.00  0.00    -0.239 OA
ATOM      4  H           0     136.332 131.272 146.499  0.00  0.00     0.164 HD
ENDROOT
BRANCH   2   5
ATOM      5  C           0     137.742 131.675 144.965  0.00  0.00     0.125 C 
BRANCH   5   6
ATOM      6  C           0     136.918 132.599 144.066  0.00  0.00     0.020 C 
BRANCH   6   7
ATOM      7  C           0     136.249 131.775 142.963  0.00  0.00     0.002 C 
BRANCH   7   8
ATOM      8  C           0     134.759 131.624 143.273  0.00  0.00     0.002 C 
BRANCH   8   9
ATOM      9  C           0     133.943 131.939 142.018  0.00  0.00     0.020 C 
BRANCH   9  10
ATOM     10  C           0     133.517 133.409 142.043  0.00  0.00     0.122 C 
BRANCH  10  11
ATOM     11  N           0     133.330 133.886 140.669  0.00  0.00    -0.360 N 
ATOM     12  C           0     133.377 135.206 140.403  0.00  0.00     0.235 C 
ATOM     13  O           0     133.573 135.999 141.299  0.00  0.00    -0.272 OA
ATOM     14  H           0     133.172 133.252 139.953  0.00  0.00     0.162 HD
BRANCH  12  15
ATOM     15  C           0     133.185 135.696 138.991  0.00  0.00     0.225 C 
BRANCH  15  16
ATOM     16  N           0     132.753 134.583 138.142  0.00  0.00    -0.348 N 
ATOM     17  C           0     132.388 134.812 136.865  0.00  0.00     0.258 C 
ATOM     18  O           0     132.419 135.943 136.417  0.00  0.00    -0.267 OA
ATOM     19  H           0     132.729 133.682 138.499  0.00  0.00     0.163 HD
BRANCH  17  20
ATOM     20  C           0     131.954 133.694 136.012  0.00  0.00     0.108 C 
ATOM     21  C           0     131.052 132.650 136.525  0.00  0.00     0.304 C 
ATOM     22  O           0     130.306 131.971 135.615  0.00  0.00    -0.274 OA
ATOM     23  O           0     130.969 132.409 137.715  0.00  0.00    -0.259 OA
ATOM     24  C           0     130.874 131.683 134.418  0.00  0.00     0.091 A 
ATOM     25  C           0     131.906 132.504 133.917  0.00  0.00    -0.001 A 
ATOM     26  C           0     130.438 130.601 133.674  0.00  0.00     0.067 A 
ATOM     27  C           0     132.387 133.583 134.695  0.00  0.00     0.037 C 
ATOM     28  C           0     132.456 132.239 132.652  0.00  0.00     0.016 A 
ATOM     29  C           0     132.009 131.175 131.928  0.00  0.00     0.030 A 
ATOM     30  C           0     131.004 130.345 132.432  0.00  0.00     0.032 A 
BRANCH  30  31
ATOM     31  N           0     130.569 129.257 131.687  0.00  0.00    -0.382 N 
BRANCH  31  32
ATOM     32  C           0     129.135 129.022 131.501  0.00  0.00     0.118 C 
ATOM     33  C           0     128.705 127.808 132.328  0.00  0.00     0.026 C 
ENDBRANCH  31  32
BRANCH  31  34
ATOM     34  C           0     131.544 128.344 131.085  0.00  0.00     0.118 C 
ATOM     35  C           0     132.239 127.541 132.188  0.00  0.00     0.026 C 
ENDBRANCH  31  34
ENDBRANCH  30  31
ENDBRANCH  17  20
ENDBRANCH  15  16
ENDBRANCH  12  15
ENDBRANCH  10  11
ENDBRANCH   9  10
ENDBRANCH   8   9
ENDBRANCH   7   8
ENDBRANCH   6   7
ENDBRANCH   5   6
ENDBRANCH   2   5
BRANCH   1  36
ATOM     36  O           0     137.358 132.305 148.565  0.00  0.00    -0.302 OA
BRANCH  36  37
ATOM     37  C           0     136.839 133.541 149.122  0.00  0.00     0.208 C 
BRANCH  37  38
ATOM     38  C           0     136.040 134.287 148.051  0.00  0.00     0.151 C 
ATOM     39  N           0     135.784 135.647 148.515  0.00  0.00    -0.218 N 
ATOM     40  C           0     134.903 135.826 149.568  0.00  0.00     0.672 C 
ATOM     41  H           0     136.219 136.406 148.097  0.00  0.00     0.178 HD
ATOM     42  N           0     134.998 136.834 150.388  0.00  0.00    -0.235 N 
ATOM     43  N           0     133.930 134.870 149.697  0.00  0.00    -0.183 N 
ATOM     44  H           0     135.703 137.491 150.270  0.00  0.00     0.174 HD
ATOM     45  H           0     134.361 136.932 151.114  0.00  0.00     0.174 HD
ATOM     46  C           0     133.646 133.778 148.765  0.00  0.00     0.217 C 
ATOM     47  C           0     132.990 134.679 150.816  0.00  0.00     0.150 C 
ATOM     48  C           0     134.765 133.516 147.768  0.00  0.00     0.180 C 
ATOM     49  C           0     133.363 132.551 149.646  0.00  0.00     0.209 C 
ATOM     50  N           0     132.467 134.084 147.938  0.00  0.00    -0.191 N 
ATOM     51  N           0     134.202 133.964 146.477  0.00  0.00    -0.216 N 
ATOM     52  C           0     132.838 134.025 146.618  0.00  0.00     0.670 C 
ATOM     53  H           0     134.705 134.176 145.675  0.00  0.00     0.178 HD
ATOM     54  N           0     131.998 134.025 145.621  0.00  0.00    -0.235 N 
ATOM     55  H           0     132.327 133.982 144.710  0.00  0.00     0.174 HD
ATOM     56  H           0     131.043 134.070 145.791  0.00  0.00     0.174 HD
ATOM     57  C           0     132.929 133.146 151.010  0.00  0.00     0.093 C 
ATOM     58  H           0     131.579 134.290 148.270  0.00  0.00     0.180 HD
BRANCH  49  59
ATOM     59  O           0     132.309 131.763 149.089  0.00  0.00    -0.362 OA
ATOM     60  H           0     132.528 130.837 149.263  0.00  0.00     0.213 HD
ENDBRANCH  49  59
BRANCH  49  61
ATOM     61  O           0     134.546 131.765 149.800  0.00  0.00    -0.362 OA
ATOM     62  H           0     134.316 131.022 150.376  0.00  0.00     0.213 HD
ENDBRANCH  49  61
ENDBRANCH  37  38
ENDBRANCH  36  37
ENDBRANCH   1  36
TORSDOF 18
ENDMDL
MODEL 5
REMARK VINA RESULT:      -6.3      4.043      7.306
REMARK  18 active torsions:
REMARK  status: ('A' for Active; 'I' for Inactive)
REMARK    1  A    between atoms: C_6  and  C_7 
REMARK    2  A    between atoms: C_7  and  O_8 
REMARK    3  A    between atoms: O_8  and  C_9 
REMARK       I    between atoms: C_9  and  N_10 
REMARK    4  A    between atoms: N_10  and  C_11 
REMARK    5  A    between atoms: C_11  and  C_12 
REMARK    6  A    between atoms: C_12  and  C_13 
REMARK    7  A    between atoms: C_13  and  C_14 
REMARK    8  A    between atoms: C_14  and  C_15 
REMARK    9  A    between atoms: C_15  and  C_16 
REMARK   10  A    between atoms: C_16  and  N_17 
REMARK       I    between atoms: N_17  and  C_18 
REMARK   11  A    between atoms: C_18  and  C_19 
REMARK   12  A    between atoms: C_19  and  N_20 
REMARK       I    between atoms: N_20  and  C_21 
REMARK   13  A    between atoms: C_21  and  C_22 
REMARK   14  A    between atoms: C_27  and  N_28 
REMARK   15  A    between atoms: N_28  and  C_29 
REMARK   16  A    between atoms: N_28  and  C_31 
REMARK   17  A    between atoms: C_52  and  O_53 
REMARK   18  A    between atoms: C_52  and  O_54 
ROOT
ATOM      1  C           0     136.322 131.809 143.831  0.00  0.00     0.360 C 
ATOM      2  N           0     135.041 132.067 143.501  0.00  0.00    -0.337 N 
ATOM      3  O           0     137.205 131.980 143.014  0.00  0.00    -0.239 OA
ATOM      4  H           0     134.335 131.930 144.153  0.00  0.00     0.164 HD
ENDROOT
BRANCH   2   5
ATOM      5  C           0     134.714 132.553 142.159  0.00  0.00     0.125 C 
BRANCH   5   6
ATOM      6  C           0     133.347 132.008 141.738  0.00  0.00     0.020 C 
BRANCH   6   7
ATOM      7  C           0     132.523 133.132 141.104  0.00  0.00     0.002 C 
BRANCH   7   8
ATOM      8  C           0     133.465 134.198 140.542  0.00  0.00     0.002 C 
BRANCH   8   9
ATOM      9  C           0     132.944 134.674 139.184  0.00  0.00     0.020 C 
BRANCH   9  10
ATOM     10  C           0     134.024 135.504 138.486  0.00  0.00     0.122 C 
BRANCH  10  11
ATOM     11  N           0     133.873 135.378 137.033  0.00  0.00    -0.360 N 
ATOM     12  C           0     134.891 135.718 136.219  0.00  0.00     0.235 C 
ATOM     13  O           0     135.931 136.128 136.687  0.00  0.00    -0.272 OA
ATOM     14  H           0     133.041 135.051 136.659  0.00  0.00     0.162 HD
BRANCH  12  15
ATOM     15  C           0     134.736 135.589 134.725  0.00  0.00     0.225 C 
BRANCH  15  16
ATOM     16  N           0     134.486 134.187 134.380  0.00  0.00    -0.348 N 
ATOM     17  C           0     133.222 133.746 134.225  0.00  0.00     0.258 C 
ATOM     18  O           0     132.289 134.513 134.371  0.00  0.00    -0.267 OA
ATOM     19  H           0     135.230 133.576 134.263  0.00  0.00     0.163 HD
BRANCH  17  20
ATOM     20  C           0     132.971 132.339 133.878  0.00  0.00     0.108 C 
ATOM     21  C           0     134.082 131.404 133.633  0.00  0.00     0.304 C 
ATOM     22  O           0     133.835 130.082 133.821  0.00  0.00    -0.274 OA
ATOM     23  O           0     135.180 131.798 133.286  0.00  0.00    -0.259 OA
ATOM     24  C           0     132.615 129.608 133.465  0.00  0.00     0.091 A 
ATOM     25  C           0     131.501 130.475 133.460  0.00  0.00    -0.001 A 
ATOM     26  C           0     132.448 128.277 133.124  0.00  0.00     0.067 A 
ATOM     27  C           0     131.676 131.845 133.763  0.00  0.00     0.037 C 
ATOM     28  C           0     130.228 129.971 133.147  0.00  0.00     0.016 A 
ATOM     29  C           0     130.080 128.657 132.822  0.00  0.00     0.030 A 
ATOM     30  C           0     131.184 127.802 132.802  0.00  0.00     0.032 A 
BRANCH  30  31
ATOM     31  N           0     131.017 126.466 132.456  0.00  0.00    -0.382 N 
BRANCH  31  32
ATOM     32  C           0     131.821 125.433 133.113  0.00  0.00     0.118 C 
ATOM     33  C           0     133.201 125.365 132.456  0.00  0.00     0.026 C 
ENDBRANCH  31  32
BRANCH  31  34
ATOM     34  C           0     130.036 126.092 131.434  0.00  0.00     0.118 C 
ATOM     35  C           0     128.845 125.398 132.101  0.00  0.00     0.026 C 
ENDBRANCH  31  34
ENDBRANCH  30  31
ENDBRANCH  17  20
ENDBRANCH  15  16
ENDBRANCH  12  15
ENDBRANCH  10  11
ENDBRANCH   9  10
ENDBRANCH   8   9
ENDBRANCH   7   8
ENDBRANCH   6   7
ENDBRANCH   5   6
ENDBRANCH   2   5
BRANCH   1  36
ATOM     36  O           0     136.623 131.361 145.064  0.00  0.00    -0.302 OA
BRANCH  36  37
ATOM     37  C           0     135.653 131.482 146.137  0.00  0.00     0.208 C 
BRANCH  37  38
ATOM     38  C           0     136.300 132.182 147.334  0.00  0.00     0.151 C 
ATOM     39  N           0     135.822 131.556 148.562  0.00  0.00    -0.218 N 
ATOM     40  C           0     134.499 131.746 148.923  0.00  0.00     0.672 C 
ATOM     41  H           0     136.414 131.020 149.112  0.00  0.00     0.178 HD
ATOM     42  N           0     133.838 130.869 149.625  0.00  0.00    -0.235 N 
ATOM     43  N           0     133.927 132.913 148.488  0.00  0.00    -0.183 N 
ATOM     44  H           0     134.273 130.051 149.913  0.00  0.00     0.174 HD
ATOM     45  H           0     132.913 131.037 149.865  0.00  0.00     0.174 HD
ATOM     46  C           0     134.604 134.023 147.816  0.00  0.00     0.217 C 
ATOM     47  C           0     132.505 133.299 148.539  0.00  0.00     0.150 C 
ATOM     48  C           0     135.976 133.662 147.267  0.00  0.00     0.180 C 
ATOM     49  C           0     133.643 134.477 146.706  0.00  0.00     0.209 C 
ATOM     50  N           0     134.851 135.134 148.751  0.00  0.00    -0.191 N 
ATOM     51  N           0     136.913 134.405 148.136  0.00  0.00    -0.216 N 
ATOM     52  C           0     136.199 135.394 148.767  0.00  0.00     0.670 C 
ATOM     53  H           0     137.861 134.227 148.241  0.00  0.00     0.178 HD
ATOM     54  N           0     136.734 136.449 149.313  0.00  0.00    -0.235 N 
ATOM     55  H           0     137.696 136.573 149.289  0.00  0.00     0.174 HD
ATOM     56  H           0     136.170 137.112 149.743  0.00  0.00     0.174 HD
ATOM     57  C           0     132.248 133.996 147.183  0.00  0.00     0.093 C 
ATOM     58  H           0     134.176 135.602 149.266  0.00  0.00     0.180 HD
BRANCH  49  59
ATOM     59  O           0     133.660 135.900 146.576  0.00  0.00    -0.362 OA
ATOM     60  H           0     133.442 136.100 145.655  0.00  0.00     0.213 HD
ENDBRANCH  49  59
BRANCH  49  61
ATOM     61  O           0     133.986 133.857 145.466  0.00  0.00    -0.362 OA
ATOM     62  H           0     133.352 133.140 145.326  0.00  0.00     0.213 HD
ENDBRANCH  49  61
ENDBRANCH  37  38
ENDBRANCH  36  37
ENDBRANCH   1  36
TORSDOF 18
ENDMDL
MODEL 6
REMARK VINA RESULT:      -6.3      4.598      6.958
REMARK  18 active torsions:
REMARK  status: ('A' for Active; 'I' for Inactive)
REMARK    1  A    between atoms: C_6  and  C_7 
REMARK    2  A    between atoms: C_7  and  O_8 
REMARK    3  A    between atoms: O_8  and  C_9 
REMARK       I    between atoms: C_9  and  N_10 
REMARK    4  A    between atoms: N_10  and  C_11 
REMARK    5  A    between atoms: C_11  and  C_12 
REMARK    6  A    between atoms: C_12  and  C_13 
REMARK    7  A    between atoms: C_13  and  C_14 
REMARK    8  A    between atoms: C_14  and  C_15 
REMARK    9  A    between atoms: C_15  and  C_16 
REMARK   10  A    between atoms: C_16  and  N_17 
REMARK       I    between atoms: N_17  and  C_18 
REMARK   11  A    between atoms: C_18  and  C_19 
REMARK   12  A    between atoms: C_19  and  N_20 
REMARK       I    between atoms: N_20  and  C_21 
REMARK   13  A    between atoms: C_21  and  C_22 
REMARK   14  A    between atoms: C_27  and  N_28 
REMARK   15  A    between atoms: N_28  and  C_29 
REMARK   16  A    between atoms: N_28  and  C_31 
REMARK   17  A    between atoms: C_52  and  O_53 
REMARK   18  A    between atoms: C_52  and  O_54 
ROOT
ATOM      1  C           0     133.676 135.042 145.890  0.00  0.00     0.360 C 
ATOM      2  N           0     133.652 134.023 145.007  0.00  0.00    -0.337 N 
ATOM      3  O           0     133.243 136.131 145.570  0.00  0.00    -0.239 OA
ATOM      4  H           0     133.998 133.153 145.262  0.00  0.00     0.164 HD
ENDROOT
BRANCH   2   5
ATOM      5  C           0     133.104 134.229 143.665  0.00  0.00     0.125 C 
BRANCH   5   6
ATOM      6  C           0     134.074 133.662 142.626  0.00  0.00     0.020 C 
BRANCH   6   7
ATOM      7  C           0     133.371 132.571 141.814  0.00  0.00     0.002 C 
BRANCH   7   8
ATOM      8  C           0     132.716 133.196 140.582  0.00  0.00     0.002 C 
BRANCH   8   9
ATOM      9  C           0     133.603 134.323 140.048  0.00  0.00     0.020 C 
BRANCH   9  10
ATOM     10  C           0     132.875 135.056 138.919  0.00  0.00     0.122 C 
BRANCH  10  11
ATOM     11  N           0     133.717 135.065 137.720  0.00  0.00    -0.360 N 
ATOM     12  C           0     133.158 135.244 136.507  0.00  0.00     0.235 C 
ATOM     13  O           0     131.960 135.398 136.408  0.00  0.00    -0.272 OA
ATOM     14  H           0     134.675 134.941 137.799  0.00  0.00     0.162 HD
BRANCH  12  15
ATOM     15  C           0     134.024 135.254 135.273  0.00  0.00     0.225 C 
BRANCH  15  16
ATOM     16  N           0     134.363 133.877 134.904  0.00  0.00    -0.348 N 
ATOM     17  C           0     133.773 133.301 133.837  0.00  0.00     0.258 C 
ATOM     18  O           0     132.961 133.926 133.181  0.00  0.00    -0.267 OA
ATOM     19  H           0     135.010 133.379 135.427  0.00  0.00     0.163 HD
BRANCH  17  20
ATOM     20  C           0     134.112 131.918 133.466  0.00  0.00     0.108 C 
ATOM     21  C           0     133.385 130.774 134.040  0.00  0.00     0.304 C 
ATOM     22  O           0     133.376 129.620 133.324  0.00  0.00    -0.274 OA
ATOM     23  O           0     132.807 130.859 135.108  0.00  0.00    -0.259 OA
ATOM     24  C           0     134.503 129.286 132.647  0.00  0.00     0.091 A 
ATOM     25  C           0     135.391 130.297 132.224  0.00  0.00    -0.001 A 
ATOM     26  C           0     134.778 127.963 132.350  0.00  0.00     0.067 A 
ATOM     27  C           0     135.137 131.645 132.566  0.00  0.00     0.037 C 
ATOM     28  C           0     136.529 129.955 131.474  0.00  0.00     0.016 A 
ATOM     29  C           0     136.782 128.649 131.183  0.00  0.00     0.030 A 
ATOM     30  C           0     135.917 127.643 131.621  0.00  0.00     0.032 A 
BRANCH  30  31
ATOM     31  N           0     136.195 126.315 131.326  0.00  0.00    -0.382 N 
BRANCH  31  32
ATOM     32  C           0     135.150 125.298 131.463  0.00  0.00     0.118 C 
ATOM     33  C           0     135.720 123.927 131.091  0.00  0.00     0.026 C 
ENDBRANCH  31  32
BRANCH  31  34
ATOM     34  C           0     137.536 125.931 130.876  0.00  0.00     0.118 C 
ATOM     35  C           0     138.339 125.397 132.065  0.00  0.00     0.026 C 
ENDBRANCH  31  34
ENDBRANCH  30  31
ENDBRANCH  17  20
ENDBRANCH  15  16
ENDBRANCH  12  15
ENDBRANCH  10  11
ENDBRANCH   9  10
ENDBRANCH   8   9
ENDBRANCH   7   8
ENDBRANCH   6   7
ENDBRANCH   5   6
ENDBRANCH   2   5
BRANCH   1  36
ATOM     36  O           0     134.180 134.852 147.124  0.00  0.00    -0.302 OA
BRANCH  36  37
ATOM     37  C           0     135.531 134.347 147.287  0.00  0.00     0.208 C 
BRANCH  37  38
ATOM     38  C           0     135.480 132.939 147.882  0.00  0.00     0.151 C 
ATOM     39  N           0     136.523 132.817 148.895  0.00  0.00    -0.218 N 
ATOM     40  C           0     137.843 132.800 148.479  0.00  0.00     0.672 C 
ATOM     41  H           0     136.299 132.750 149.836  0.00  0.00     0.178 HD
ATOM     42  N           0     138.815 133.228 149.235  0.00  0.00    -0.235 N 
ATOM     43  N           0     138.061 132.312 147.218  0.00  0.00    -0.183 N 
ATOM     44  H           0     138.624 133.572 150.122  0.00  0.00     0.174 HD
ATOM     45  H           0     139.730 133.198 148.914  0.00  0.00     0.174 HD
ATOM     46  C           0     137.074 131.684 146.339  0.00  0.00     0.217 C 
ATOM     47  C           0     139.309 132.355 146.433  0.00  0.00     0.150 C 
ATOM     48  C           0     135.634 131.930 146.760  0.00  0.00     0.180 C 
ATOM     49  C           0     137.364 132.240 144.935  0.00  0.00     0.209 C 
ATOM     50  N           0     137.225 130.220 146.338  0.00  0.00    -0.191 N 
ATOM     51  N           0     135.171 130.606 147.230  0.00  0.00    -0.216 N 
ATOM     52  C           0     136.030 129.663 146.723  0.00  0.00     0.670 C 
ATOM     53  H           0     134.400 130.436 147.793  0.00  0.00     0.178 HD
ATOM     54  N           0     135.746 128.394 146.619  0.00  0.00    -0.235 N 
ATOM     55  H           0     134.882 128.066 146.911  0.00  0.00     0.174 HD
ATOM     56  H           0     136.401 127.780 146.251  0.00  0.00     0.174 HD
ATOM     57  C           0     138.847 132.687 144.995  0.00  0.00     0.093 C 
ATOM     58  H           0     138.029 129.732 146.104  0.00  0.00     0.180 HD
BRANCH  49  59
ATOM     59  O           0     137.192 131.224 143.945  0.00  0.00    -0.362 OA
ATOM     60  H           0     137.942 130.620 144.029  0.00  0.00     0.213 HD
ENDBRANCH  49  59
BRANCH  49  61
ATOM     61  O           0     136.518 133.357 144.657  0.00  0.00    -0.362 OA
ATOM     62  H           0     135.691 133.208 145.137  0.00  0.00     0.213 HD
ENDBRANCH  49  61
ENDBRANCH  37  38
ENDBRANCH  36  37
ENDBRANCH   1  36
TORSDOF 18
ENDMDL
MODEL 7
REMARK VINA RESULT:      -6.0      4.068      7.013
REMARK  18 active torsions:
REMARK  status: ('A' for Active; 'I' for Inactive)
REMARK    1  A    between atoms: C_6  and  C_7 
REMARK    2  A    between atoms: C_7  and  O_8 
REMARK    3  A    between atoms: O_8  and  C_9 
REMARK       I    between atoms: C_9  and  N_10 
REMARK    4  A    between atoms: N_10  and  C_11 
REMARK    5  A    between atoms: C_11  and  C_12 
REMARK    6  A    between atoms: C_12  and  C_13 
REMARK    7  A    between atoms: C_13  and  C_14 
REMARK    8  A    between atoms: C_14  and  C_15 
REMARK    9  A    between atoms: C_15  and  C_16 
REMARK   10  A    between atoms: C_16  and  N_17 
REMARK       I    between atoms: N_17  and  C_18 
REMARK   11  A    between atoms: C_18  and  C_19 
REMARK   12  A    between atoms: C_19  and  N_20 
REMARK       I    between atoms: N_20  and  C_21 
REMARK   13  A    between atoms: C_21  and  C_22 
REMARK   14  A    between atoms: C_27  and  N_28 
REMARK   15  A    between atoms: N_28  and  C_29 
REMARK   16  A    between atoms: N_28  and  C_31 
REMARK   17  A    between atoms: C_52  and  O_53 
REMARK   18  A    between atoms: C_52  and  O_54 
ROOT
ATOM      1  C           0     136.386 131.658 144.318  0.00  0.00     0.360 C 
ATOM      2  N           0     135.160 132.102 143.975  0.00  0.00    -0.337 N 
ATOM      3  O           0     137.297 131.712 143.515  0.00  0.00    -0.239 OA
ATOM      4  H           0     134.433 132.059 144.615  0.00  0.00     0.164 HD
ENDROOT
BRANCH   2   5
ATOM      5  C           0     134.927 132.647 142.636  0.00  0.00     0.125 C 
BRANCH   5   6
ATOM      6  C           0     133.699 131.974 142.019  0.00  0.00     0.020 C 
BRANCH   6   7
ATOM      7  C           0     132.784 133.041 141.411  0.00  0.00     0.002 C 
BRANCH   7   8
ATOM      8  C           0     133.637 134.151 140.793  0.00  0.00     0.002 C 
BRANCH   8   9
ATOM      9  C           0     132.943 134.689 139.540  0.00  0.00     0.020 C 
BRANCH   9  10
ATOM     10  C           0     133.964 135.424 138.668  0.00  0.00     0.122 C 
BRANCH  10  11
ATOM     11  N           0     133.595 135.278 137.257  0.00  0.00    -0.360 N 
ATOM     12  C           0     134.472 135.622 136.293  0.00  0.00     0.235 C 
ATOM     13  O           0     135.564 136.053 136.593  0.00  0.00    -0.272 OA
ATOM     14  H           0     132.721 134.934 137.017  0.00  0.00     0.162 HD
BRANCH  12  15
ATOM     15  C           0     134.092 135.472 134.842  0.00  0.00     0.225 C 
BRANCH  15  16
ATOM     16  N           0     133.468 134.163 134.634  0.00  0.00    -0.348 N 
ATOM     17  C           0     133.953 133.326 133.694  0.00  0.00     0.258 C 
ATOM     18  O           0     134.910 133.659 133.021  0.00  0.00    -0.267 OA
ATOM     19  H           0     132.705 133.898 135.171  0.00  0.00     0.163 HD
BRANCH  17  20
ATOM     20  C           0     133.326 132.012 133.485  0.00  0.00     0.108 C 
ATOM     21  C           0     131.889 131.804 133.733  0.00  0.00     0.304 C 
ATOM     22  O           0     131.285 130.785 133.070  0.00  0.00    -0.274 OA
ATOM     23  O           0     131.265 132.521 134.493  0.00  0.00    -0.259 OA
ATOM     24  C           0     131.993 129.643 132.882  0.00  0.00     0.091 A 
ATOM     25  C           0     133.402 129.692 132.836  0.00  0.00    -0.001 A 
ATOM     26  C           0     131.343 128.432 132.716  0.00  0.00     0.067 A 
ATOM     27  C           0     134.070 130.920 133.051  0.00  0.00     0.037 C 
ATOM     28  C           0     134.132 128.519 132.585  0.00  0.00     0.016 A 
ATOM     29  C           0     133.478 127.336 132.416  0.00  0.00     0.030 A 
ATOM     30  C           0     132.084 127.280 132.485  0.00  0.00     0.032 A 
BRANCH  30  31
ATOM     31  N           0     131.432 126.064 132.322  0.00  0.00    -0.382 N 
BRANCH  31  32
ATOM     32  C           0     130.130 126.013 131.654  0.00  0.00     0.118 C 
ATOM     33  C           0     129.162 126.972 132.350  0.00  0.00     0.026 C 
ENDBRANCH  31  32
BRANCH  31  34
ATOM     34  C           0     132.050 124.831 132.818  0.00  0.00     0.118 C 
ATOM     35  C           0     131.703 124.646 134.297  0.00  0.00     0.026 C 
ENDBRANCH  31  34
ENDBRANCH  30  31
ENDBRANCH  17  20
ENDBRANCH  15  16
ENDBRANCH  12  15
ENDBRANCH  10  11
ENDBRANCH   9  10
ENDBRANCH   8   9
ENDBRANCH   7   8
ENDBRANCH   6   7
ENDBRANCH   5   6
ENDBRANCH   2   5
BRANCH   1  36
ATOM     36  O           0     136.602 131.157 145.548  0.00  0.00    -0.302 OA
BRANCH  36  37
ATOM     37  C           0     135.536 130.459 146.244  0.00  0.00     0.208 C 
BRANCH  37  38
ATOM     38  C           0     136.097 129.193 146.896  0.00  0.00     0.151 C 
ATOM     39  N           0     135.045 128.566 147.690  0.00  0.00    -0.218 N 
ATOM     40  C           0     134.625 129.204 148.844  0.00  0.00     0.672 C 
ATOM     41  H           0     134.650 127.724 147.416  0.00  0.00     0.178 HD
ATOM     42  N           0     133.416 129.069 149.312  0.00  0.00    -0.235 N 
ATOM     43  N           0     135.561 129.993 149.459  0.00  0.00    -0.183 N 
ATOM     44  H           0     132.777 128.505 148.848  0.00  0.00     0.174 HD
ATOM     45  H           0     133.156 129.527 150.126  0.00  0.00     0.174 HD
ATOM     46  C           0     136.976 130.113 149.105  0.00  0.00     0.217 C 
ATOM     47  C           0     135.357 130.942 150.570  0.00  0.00     0.150 C 
ATOM     48  C           0     137.310 129.568 147.725  0.00  0.00     0.180 C 
ATOM     49  C           0     137.303 131.610 149.226  0.00  0.00     0.209 C 
ATOM     50  N           0     137.819 129.340 150.032  0.00  0.00    -0.191 N 
ATOM     51  N           0     138.102 128.351 148.006  0.00  0.00    -0.216 N 
ATOM     52  C           0     138.553 128.440 149.300  0.00  0.00     0.670 C 
ATOM     53  H           0     138.273 127.623 147.389  0.00  0.00     0.178 HD
ATOM     54  N           0     139.555 127.754 149.775  0.00  0.00    -0.235 N 
ATOM     55  H           0     140.032 127.133 149.203  0.00  0.00     0.174 HD
ATOM     56  H           0     139.823 127.865 150.701  0.00  0.00     0.174 HD
ATOM     57  C           0     136.229 132.164 150.197  0.00  0.00     0.093 C 
ATOM     58  H           0     137.851 129.449 150.995  0.00  0.00     0.180 HD
BRANCH  49  59
ATOM     59  O           0     138.610 131.798 149.772  0.00  0.00    -0.362 OA
ATOM     60  H           0     139.240 131.496 149.103  0.00  0.00     0.213 HD
ENDBRANCH  49  59
BRANCH  49  61
ATOM     61  O           0     137.197 132.247 147.951  0.00  0.00    -0.362 OA
ATOM     62  H           0     137.799 131.781 147.355  0.00  0.00     0.213 HD
ENDBRANCH  49  61
ENDBRANCH  37  38
ENDBRANCH  36  37
ENDBRANCH   1  36
TORSDOF 18
ENDMDL
MODEL 8
REMARK VINA RESULT:      -5.8      3.954      6.953
REMARK  18 active torsions:
REMARK  status: ('A' for Active; 'I' for Inactive)
REMARK    1  A    between atoms: C_6  and  C_7 
REMARK    2  A    between atoms: C_7  and  O_8 
REMARK    3  A    between atoms: O_8  and  C_9 
REMARK       I    between atoms: C_9  and  N_10 
REMARK    4  A    between atoms: N_10  and  C_11 
REMARK    5  A    between atoms: C_11  and  C_12 
REMARK    6  A    between atoms: C_12  and  C_13 
REMARK    7  A    between atoms: C_13  and  C_14 
REMARK    8  A    between atoms: C_14  and  C_15 
REMARK    9  A    between atoms: C_15  and  C_16 
REMARK   10  A    between atoms: C_16  and  N_17 
REMARK       I    between atoms: N_17  and  C_18 
REMARK   11  A    between atoms: C_18  and  C_19 
REMARK   12  A    between atoms: C_19  and  N_20 
REMARK       I    between atoms: N_20  and  C_21 
REMARK   13  A    between atoms: C_21  and  C_22 
REMARK   14  A    between atoms: C_27  and  N_28 
REMARK   15  A    between atoms: N_28  and  C_29 
REMARK   16  A    between atoms: N_28  and  C_31 
REMARK   17  A    between atoms: C_52  and  O_53 
REMARK   18  A    between atoms: C_52  and  O_54 
ROOT
ATOM      1  C           0     137.425 132.126 145.102  0.00  0.00     0.360 C 
ATOM      2  N           0     136.540 131.356 144.438  0.00  0.00    -0.337 N 
ATOM      3  O           0     137.983 133.041 144.529  0.00  0.00    -0.239 OA
ATOM      4  H           0     136.095 130.625 144.895  0.00  0.00     0.164 HD
ENDROOT
BRANCH   2   5
ATOM      5  C           0     136.251 131.623 143.028  0.00  0.00     0.125 C 
BRANCH   5   6
ATOM      6  C           0     134.736 131.634 142.811  0.00  0.00     0.020 C 
BRANCH   6   7
ATOM      7  C           0     134.268 133.069 142.554  0.00  0.00     0.002 C 
BRANCH   7   8
ATOM      8  C           0     134.436 133.401 141.071  0.00  0.00     0.002 C 
BRANCH   8   9
ATOM      9  C           0     133.146 134.028 140.539  0.00  0.00     0.020 C 
BRANCH   9  10
ATOM     10  C           0     133.457 135.395 139.925  0.00  0.00     0.122 C 
BRANCH  10  11
ATOM     11  N           0     132.868 135.474 138.586  0.00  0.00    -0.360 N 
ATOM     12  C           0     133.667 135.513 137.501  0.00  0.00     0.235 C 
ATOM     13  O           0     134.871 135.484 137.633  0.00  0.00    -0.272 OA
ATOM     14  H           0     131.905 135.498 138.480  0.00  0.00     0.162 HD
BRANCH  12  15
ATOM     15  C           0     133.062 135.595 136.123  0.00  0.00     0.225 C 
BRANCH  15  16
ATOM     16  N           0     132.831 134.241 135.611  0.00  0.00    -0.348 N 
ATOM     17  C           0     133.492 133.813 134.517  0.00  0.00     0.258 C 
ATOM     18  O           0     134.282 134.550 133.957  0.00  0.00    -0.267 OA
ATOM     19  H           0     132.202 133.654 136.058  0.00  0.00     0.163 HD
BRANCH  17  20
ATOM     20  C           0     133.260 132.454 134.003  0.00  0.00     0.108 C 
ATOM     21  C           0     134.377 131.611 133.544  0.00  0.00     0.304 C 
ATOM     22  O           0     134.192 130.266 133.568  0.00  0.00    -0.274 OA
ATOM     23  O           0     135.428 132.097 133.167  0.00  0.00    -0.259 OA
ATOM     24  C           0     132.963 129.790 133.250  0.00  0.00     0.091 A 
ATOM     25  C           0     131.824 130.598 133.454  0.00  0.00    -0.001 A 
ATOM     26  C           0     132.813 128.510 132.746  0.00  0.00     0.067 A 
ATOM     27  C           0     131.978 131.923 133.926  0.00  0.00     0.037 C 
ATOM     28  C           0     130.547 130.084 133.178  0.00  0.00     0.016 A 
ATOM     29  C           0     130.416 128.819 132.689  0.00  0.00     0.030 A 
ATOM     30  C           0     131.542 128.025 132.464  0.00  0.00     0.032 A 
BRANCH  30  31
ATOM     31  N           0     131.392 126.742 131.953  0.00  0.00    -0.382 N 
BRANCH  31  32
ATOM     32  C           0     130.236 126.415 131.116  0.00  0.00     0.118 C 
ATOM     33  C           0     129.211 125.635 131.943  0.00  0.00     0.026 C 
ENDBRANCH  31  32
BRANCH  31  34
ATOM     34  C           0     132.393 125.714 132.252  0.00  0.00     0.118 C 
ATOM     35  C           0     131.958 124.923 133.488  0.00  0.00     0.026 C 
ENDBRANCH  31  34
ENDBRANCH  30  31
ENDBRANCH  17  20
ENDBRANCH  15  16
ENDBRANCH  12  15
ENDBRANCH  10  11
ENDBRANCH   9  10
ENDBRANCH   8   9
ENDBRANCH   7   8
ENDBRANCH   6   7
ENDBRANCH   5   6
ENDBRANCH   2   5
BRANCH   1  36
ATOM     36  O           0     137.692 131.881 146.399  0.00  0.00    -0.302 OA
BRANCH  36  37
ATOM     37  C           0     137.553 132.941 147.381  0.00  0.00     0.208 C 
BRANCH  37  38
ATOM     38  C           0     136.414 133.875 146.966  0.00  0.00     0.151 C 
ATOM     39  N           0     136.389 135.019 147.871  0.00  0.00    -0.218 N 
ATOM     40  C           0     135.997 134.811 149.182  0.00  0.00     0.672 C 
ATOM     41  H           0     136.641 135.904 147.563  0.00  0.00     0.178 HD
ATOM     42  N           0     136.427 135.554 150.162  0.00  0.00    -0.235 N 
ATOM     43  N           0     135.133 133.767 149.383  0.00  0.00    -0.183 N 
ATOM     44  H           0     137.042 136.283 149.984  0.00  0.00     0.174 HD
ATOM     45  H           0     136.128 135.383 151.069  0.00  0.00     0.174 HD
ATOM     46  C           0     134.483 132.956 148.353  0.00  0.00     0.217 C 
ATOM     47  C           0     134.704 133.180 150.667  0.00  0.00     0.150 C 
ATOM     48  C           0     135.115 133.093 146.977  0.00  0.00     0.180 C 
ATOM     49  C           0     134.542 131.510 148.871  0.00  0.00     0.209 C 
ATOM     50  N           0     133.080 133.364 148.168  0.00  0.00    -0.191 N 
ATOM     51  N           0     134.100 133.826 146.191  0.00  0.00    -0.216 N 
ATOM     52  C           0     132.901 133.712 146.852  0.00  0.00     0.670 C 
ATOM     53  H           0     134.252 134.301 145.359  0.00  0.00     0.178 HD
ATOM     54  N           0     131.738 133.909 146.298  0.00  0.00    -0.235 N 
ATOM     55  H           0     131.682 134.154 145.362  0.00  0.00     0.174 HD
ATOM     56  H           0     130.928 133.811 146.824  0.00  0.00     0.174 HD
ATOM     57  C           0     134.691 131.656 150.407  0.00  0.00     0.093 C 
ATOM     58  H           0     132.399 133.382 148.857  0.00  0.00     0.180 HD
BRANCH  49  59
ATOM     59  O           0     133.338 130.810 148.553  0.00  0.00    -0.362 OA
ATOM     60  H           0     133.459 130.430 147.672  0.00  0.00     0.213 HD
ENDBRANCH  49  59
BRANCH  49  61
ATOM     61  O           0     135.674 130.831 148.324  0.00  0.00    -0.362 OA
ATOM     62  H           0     135.515 130.742 147.374  0.00  0.00     0.213 HD
ENDBRANCH  49  61
ENDBRANCH  37  38
ENDBRANCH  36  37
ENDBRANCH   1  36
TORSDOF 18
ENDMDL
MODEL 9
REMARK VINA RESULT:      -5.8      3.488      6.599
REMARK  18 active torsions:
REMARK  status: ('A' for Active; 'I' for Inactive)
REMARK    1  A    between atoms: C_6  and  C_7 
REMARK    2  A    between atoms: C_7  and  O_8 
REMARK    3  A    between atoms: O_8  and  C_9 
REMARK       I    between atoms: C_9  and  N_10 
REMARK    4  A    between atoms: N_10  and  C_11 
REMARK    5  A    between atoms: C_11  and  C_12 
REMARK    6  A    between atoms: C_12  and  C_13 
REMARK    7  A    between atoms: C_13  and  C_14 
REMARK    8  A    between atoms: C_14  and  C_15 
REMARK    9  A    between atoms: C_15  and  C_16 
REMARK   10  A    between atoms: C_16  and  N_17 
REMARK       I    between atoms: N_17  and  C_18 
REMARK   11  A    between atoms: C_18  and  C_19 
REMARK   12  A    between atoms: C_19  and  N_20 
REMARK       I    between atoms: N_20  and  C_21 
REMARK   13  A    between atoms: C_21  and  C_22 
REMARK   14  A    between atoms: C_27  and  N_28 
REMARK   15  A    between atoms: N_28  and  C_29 
REMARK   16  A    between atoms: N_28  and  C_31 
REMARK   17  A    between atoms: C_52  and  O_53 
REMARK   18  A    between atoms: C_52  and  O_54 
ROOT
ATOM      1  C           0     138.651 129.615 150.530  0.00  0.00     0.360 C 
ATOM      2  N           0     139.390 129.126 149.515  0.00  0.00    -0.337 N 
ATOM      3  O           0     139.007 130.621 151.111  0.00  0.00    -0.239 OA
ATOM      4  H           0     139.106 128.322 149.051  0.00  0.00     0.164 HD
ENDROOT
BRANCH   2   5
ATOM      5  C           0     140.622 129.807 149.112  0.00  0.00     0.125 C 
BRANCH   5   6
ATOM      6  C           0     140.505 130.250 147.652  0.00  0.00     0.020 C 
BRANCH   6   7
ATOM      7  C           0     141.124 131.641 147.490  0.00  0.00     0.002 C 
BRANCH   7   8
ATOM      8  C           0     140.983 132.417 148.800  0.00  0.00     0.002 C 
BRANCH   8   9
ATOM      9  C           0     141.124 133.915 148.524  0.00  0.00     0.020 C 
BRANCH   9  10
ATOM     10  C           0     140.694 134.705 149.762  0.00  0.00     0.122 C 
BRANCH  10  11
ATOM     11  N           0     139.295 134.401 150.074  0.00  0.00    -0.360 N 
ATOM     12  C           0     138.345 135.339 149.889  0.00  0.00     0.235 C 
ATOM     13  O           0     138.648 136.434 149.466  0.00  0.00    -0.272 OA
ATOM     14  H           0     139.053 133.526 150.413  0.00  0.00     0.162 HD
BRANCH  12  15
ATOM     15  C           0     136.906 135.027 150.209  0.00  0.00     0.225 C 
BRANCH  15  16
ATOM     16  N           0     136.135 134.947 148.966  0.00  0.00    -0.348 N 
ATOM     17  C           0     136.462 134.037 148.027  0.00  0.00     0.258 C 
ATOM     18  O           0     137.397 133.281 148.213  0.00  0.00    -0.267 OA
ATOM     19  H           0     135.389 135.549 148.818  0.00  0.00     0.163 HD
BRANCH  17  20
ATOM     20  C           0     135.688 133.958 146.778  0.00  0.00     0.108 C 
ATOM     21  C           0     134.217 134.022 146.787  0.00  0.00     0.304 C 
ATOM     22  O           0     133.606 134.446 145.651  0.00  0.00    -0.274 OA
ATOM     23  O           0     133.573 133.716 147.774  0.00  0.00    -0.259 OA
ATOM     24  C           0     134.144 134.070 144.464  0.00  0.00     0.091 A 
ATOM     25  C           0     135.521 133.776 144.381  0.00  0.00    -0.001 A 
ATOM     26  C           0     133.356 133.990 143.329  0.00  0.00     0.067 A 
ATOM     27  C           0     136.320 133.813 145.548  0.00  0.00     0.037 C 
ATOM     28  C           0     136.089 133.442 143.140  0.00  0.00     0.016 A 
ATOM     29  C           0     135.302 133.375 142.030  0.00  0.00     0.030 A 
ATOM     30  C           0     133.933 133.641 142.114  0.00  0.00     0.032 A 
BRANCH  30  31
ATOM     31  N           0     133.142 133.557 140.975  0.00  0.00    -0.382 N 
BRANCH  31  32
ATOM     32  C           0     133.504 134.311 139.773  0.00  0.00     0.118 C 
ATOM     33  C           0     133.407 135.811 140.061  0.00  0.00     0.026 C 
ENDBRANCH  31  32
BRANCH  31  34
ATOM     34  C           0     131.945 132.713 140.977  0.00  0.00     0.118 C 
ATOM     35  C           0     131.125 132.986 139.713  0.00  0.00     0.026 C 
ENDBRANCH  31  34
ENDBRANCH  30  31
ENDBRANCH  17  20
ENDBRANCH  15  16
ENDBRANCH  12  15
ENDBRANCH  10  11
ENDBRANCH   9  10
ENDBRANCH   8   9
ENDBRANCH   7   8
ENDBRANCH   6   7
ENDBRANCH   5   6
ENDBRANCH   2   5
BRANCH   1  36
ATOM     36  O           0     137.518 128.989 150.901  0.00  0.00    -0.302 OA
BRANCH  36  37
ATOM     37  C           0     136.245 129.681 150.815  0.00  0.00     0.208 C 
BRANCH  37  38
ATOM     38  C           0     136.233 130.575 149.574  0.00  0.00     0.151 C 
ATOM     39  N           0     135.244 131.631 149.763  0.00  0.00    -0.218 N 
ATOM     40  C           0     133.904 131.284 149.760  0.00  0.00     0.672 C 
ATOM     41  H           0     135.517 132.553 149.888  0.00  0.00     0.178 HD
ATOM     42  N           0     133.009 131.963 150.420  0.00  0.00    -0.235 N 
ATOM     43  N           0     133.581 130.175 149.023  0.00  0.00    -0.183 N 
ATOM     44  H           0     133.274 132.741 150.935  0.00  0.00     0.174 HD
ATOM     45  H           0     132.077 131.694 150.392  0.00  0.00     0.174 HD
ATOM     46  C           0     134.470 129.419 148.140  0.00  0.00     0.217 C 
ATOM     47  C           0     132.296 129.452 148.990  0.00  0.00     0.150 C 
ATOM     48  C           0     135.946 129.716 148.357  0.00  0.00     0.180 C 
ATOM     49  C           0     134.138 127.940 148.393  0.00  0.00     0.209 C 
ATOM     50  N           0     134.220 129.754 146.728  0.00  0.00    -0.191 N 
ATOM     51  N           0     136.343 130.452 147.138  0.00  0.00    -0.216 N 
ATOM     52  C           0     135.394 130.206 146.177  0.00  0.00     0.670 C 
ATOM     53  H           0     137.132 131.007 147.035  0.00  0.00     0.178 HD
ATOM     54  N           0     135.584 130.378 144.899  0.00  0.00    -0.235 N 
ATOM     55  H           0     136.439 130.701 144.575  0.00  0.00     0.174 HD
ATOM     56  H           0     134.869 130.184 144.272  0.00  0.00     0.174 HD
ATOM     57  C           0     132.696 127.958 148.959  0.00  0.00     0.093 C 
ATOM     58  H           0     133.372 129.669 146.266  0.00  0.00     0.180 HD
BRANCH  49  59
ATOM     59  O           0     134.184 127.198 147.173  0.00  0.00    -0.362 OA
ATOM     60  H           0     135.070 126.816 147.109  0.00  0.00     0.213 HD
ENDBRANCH  49  59
BRANCH  49  61
ATOM     61  O           0     135.042 127.384 149.350  0.00  0.00    -0.362 OA
ATOM     62  H           0     134.876 127.837 150.188  0.00  0.00     0.213 HD
ENDBRANCH  49  61
ENDBRANCH  37  38
ENDBRANCH  36  37
ENDBRANCH   1  36
TORSDOF 18
ENDMDL
