# created with PyMOL 2.3.4
@<TRIPOS>MOLECULE
ligand_out_0001
32 34 1                 
SMALL
USER_CHARGES
@<TRIPOS>ATOM
1	   N	134.931	132.271	146.627	N.3	1	UNK0	-0.235	
2	   N	136.504	133.814	145.800	N.3	1	UNK0	-0.218	
3	   N	136.167	135.943	143.600	N.3	1	UNK0	-0.216	
4	   N	134.352	137.227	142.789	N.3	1	UNK0	-0.235	
5	   N	134.230	134.882	143.068	N.3	1	UNK0	-0.191	
6	   N	134.857	132.956	144.389	N.3	1	UNK0	-0.183	
7	   N	138.024	130.551	145.908	N.pl3	1	UNK0	-0.346	
8	   C	135.407	132.984	145.644	C.3	1	UNK0	0.672	
9	   C	137.346	134.073	144.635	C.3	1	UNK0	0.151	
10	   C	136.548	134.525	143.427	C.3	1	UNK0	0.180	
11	   C	134.884	136.087	143.131	C.3	1	UNK0	0.670	
12	   C	135.219	133.808	143.256	C.3	1	UNK0	0.217	
13	   C	133.828	132.035	143.872	C.3	1	UNK0	0.150	
14	   C	134.301	131.700	142.437	C.3	1	UNK0	0.093	
15	   C	135.221	132.879	142.030	C.3	1	UNK0	0.209	
16	   C	138.100	132.792	144.276	C.2	1	UNK0	0.208	
17	   C	139.118	131.338	145.927	C.2	1	UNK0	0.358	
18	   O	139.106	132.523	145.287	O.2	1	UNK0	-0.302	
19	   O	140.115	130.979	146.521	O.co2	1	UNK0	-0.239	
20	   O	134.691	133.552	140.887	O.2	1	UNK0	-0.362	
21	   O	136.544	132.409	141.764	O.2	1	UNK0	-0.362	
22	   H	135.347	132.311	147.501	 H	1	UNK0	0.174	
23	   H	134.158	131.702	146.483	 H	1	UNK0	0.174	
24	   H	134.871	138.044	142.859	 H	1	UNK0	0.174	
25	   H	133.439	137.258	142.465	 H	1	UNK0	0.174	
26	   H	136.708	134.212	146.660	 H	1	UNK0	0.178	
27	   H	136.722	136.645	143.975	 H	1	UNK0	0.178	
28	   H	133.279	134.759	142.921	 H	1	UNK0	0.180	
29	   H	137.228	130.838	145.434	 H	1	UNK0	0.161	
30	   H	138.032	129.698	146.370	 H	1	UNK0	0.161	
31	   H	135.236	133.293	140.132	 H	1	UNK0	0.213	
32	   H	137.151	133.097	142.073	 H	1	UNK0	0.213	
@<TRIPOS>BOND
1 1 8 1
2 1 22 1
3 1 23 1
4 2 9 1
5 2 26 1
6 3 11 1
7 3 27 1
8 4 24 1
9 4 25 1
10 5 28 1
11 6 13 1
12 7 29 1
13 7 30 1
14 2 8 1
15 6 8 1
16 9 10 1
17 9 16 1
18 3 10 1
19 10 12 1
20 4 11 1
21 5 11 1
22 5 12 1
23 6 12 1
24 12 15 1
25 13 14 1
26 14 15 1
27 15 20 2
28 15 21 2
29 16 18 2
30 7 17 1
31 17 19 2
32 17 18 2
33 20 31 1
34 21 32 1
@<TRIPOS>SUBSTRUCTURE
1	UNK0	1	GROUP	1 ****	UNK
