MODEL 1
REMARK VINA RESULT:      -7.5      0.000      0.000
REMARK  5 active torsions:
REMARK  status: ('A' for Active; 'I' for Inactive)
REMARK    1  A    between atoms: C_6  and  C_7 
REMARK    2  A    between atoms: C_7  and  O_8 
REMARK    3  A    between atoms: O_8  and  C_9 
REMARK       I    between atoms: C_9  and  N_10 
REMARK    4  A    between atoms: C_23  and  O_24 
REMARK    5  A    between atoms: C_23  and  O_25 
ROOT
ATOM      1  N           0     134.931 132.271 146.627  0.00  0.00    -0.235 N 
ATOM      2  H           0     135.347 132.311 147.501  0.00  0.00     0.174 HD
ATOM      3  H           0     134.158 131.702 146.483  0.00  0.00     0.174 HD
ATOM      4  C           0     135.407 132.984 145.644  0.00  0.00     0.672 C 
ATOM      5  N           0     136.504 133.814 145.800  0.00  0.00    -0.218 N 
ATOM      6  C           0     137.346 134.073 144.635  0.00  0.00     0.151 C 
ATOM      7  C           0     136.548 134.525 143.427  0.00  0.00     0.180 C 
ATOM      8  N           0     136.167 135.943 143.600  0.00  0.00    -0.216 N 
ATOM      9  C           0     134.884 136.087 143.131  0.00  0.00     0.670 C 
ATOM     10  N           0     134.352 137.227 142.789  0.00  0.00    -0.235 N 
ATOM     11  H           0     134.871 138.044 142.859  0.00  0.00     0.174 HD
ATOM     12  H           0     133.439 137.258 142.465  0.00  0.00     0.174 HD
ATOM     13  C           0     135.219 133.808 143.256  0.00  0.00     0.217 C 
ATOM     14  N           0     134.230 134.882 143.068  0.00  0.00    -0.191 N 
ATOM     15  N           0     134.857 132.956 144.389  0.00  0.00    -0.183 N 
ATOM     16  C           0     133.828 132.035 143.872  0.00  0.00     0.150 C 
ATOM     17  C           0     134.301 131.700 142.437  0.00  0.00     0.093 C 
ATOM     18  C           0     135.221 132.879 142.030  0.00  0.00     0.209 C 
ATOM     19  H           0     136.708 134.212 146.660  0.00  0.00     0.178 HD
ATOM     20  H           0     136.722 136.645 143.975  0.00  0.00     0.178 HD
ATOM     21  H           0     133.279 134.759 142.921  0.00  0.00     0.180 HD
ENDROOT
BRANCH   6  22
ATOM     22  C           0     138.100 132.792 144.276  0.00  0.00     0.208 C 
BRANCH  22  23
ATOM     23  O           0     139.106 132.523 145.287  0.00  0.00    -0.302 OA
BRANCH  23  24
ATOM     24  C           0     139.118 131.338 145.927  0.00  0.00     0.358 C 
ATOM     25  N           0     138.024 130.551 145.908  0.00  0.00    -0.346 N 
ATOM     26  H           0     137.228 130.838 145.434  0.00  0.00     0.161 HD
ATOM     27  H           0     138.032 129.698 146.370  0.00  0.00     0.161 HD
ATOM     28  O           0     140.115 130.979 146.521  0.00  0.00    -0.239 OA
ENDBRANCH  23  24
ENDBRANCH  22  23
ENDBRANCH   6  22
BRANCH  18  29
ATOM     29  O           0     134.691 133.552 140.887  0.00  0.00    -0.362 OA
ATOM     30  H           0     135.236 133.293 140.132  0.00  0.00     0.213 HD
ENDBRANCH  18  29
BRANCH  18  31
ATOM     31  O           0     136.544 132.409 141.764  0.00  0.00    -0.362 OA
ATOM     32  H           0     137.151 133.097 142.073  0.00  0.00     0.213 HD
ENDBRANCH  18  31
TORSDOF 5
ENDMDL
MODEL 2
REMARK VINA RESULT:      -7.3      1.821      5.630
REMARK  5 active torsions:
REMARK  status: ('A' for Active; 'I' for Inactive)
REMARK    1  A    between atoms: C_6  and  C_7 
REMARK    2  A    between atoms: C_7  and  O_8 
REMARK    3  A    between atoms: O_8  and  C_9 
REMARK       I    between atoms: C_9  and  N_10 
REMARK    4  A    between atoms: C_23  and  O_24 
REMARK    5  A    between atoms: C_23  and  O_25 
ROOT
ATOM      1  N           0     135.056 136.710 143.226  0.00  0.00    -0.235 N 
ATOM      2  H           0     134.314 137.282 142.976  0.00  0.00     0.174 HD
ATOM      3  H           0     135.911 137.102 143.467  0.00  0.00     0.174 HD
ATOM      4  C           0     134.905 135.416 143.244  0.00  0.00     0.672 C 
ATOM      5  N           0     133.706 134.809 142.915  0.00  0.00    -0.218 N 
ATOM      6  C           0     133.743 133.461 142.355  0.00  0.00     0.151 C 
ATOM      7  C           0     134.570 132.504 143.191  0.00  0.00     0.180 C 
ATOM      8  N           0     133.792 132.101 144.381  0.00  0.00    -0.216 N 
ATOM      9  C           0     134.659 132.052 145.446  0.00  0.00     0.670 C 
ATOM     10  N           0     134.425 131.403 146.551  0.00  0.00    -0.235 N 
ATOM     11  H           0     133.595 130.913 146.660  0.00  0.00     0.174 HD
ATOM     12  H           0     135.082 131.409 147.265  0.00  0.00     0.174 HD
ATOM     13  C           0     135.834 133.118 143.770  0.00  0.00     0.217 C 
ATOM     14  N           0     135.803 132.771 145.201  0.00  0.00    -0.191 N 
ATOM     15  N           0     135.926 134.567 143.585  0.00  0.00    -0.183 N 
ATOM     16  C           0     137.349 134.896 143.784  0.00  0.00     0.150 C 
ATOM     17  C           0     138.110 133.720 143.126  0.00  0.00     0.093 C 
ATOM     18  C           0     137.104 132.542 143.121  0.00  0.00     0.209 C 
ATOM     19  H           0     132.862 135.267 143.053  0.00  0.00     0.178 HD
ATOM     20  H           0     132.842 131.907 144.407  0.00  0.00     0.178 HD
ATOM     21  H           0     136.476 133.007 145.858  0.00  0.00     0.180 HD
ENDROOT
BRANCH   6  22
ATOM     22  C           0     134.338 133.528 140.947  0.00  0.00     0.208 C 
BRANCH  22  23
ATOM     23  O           0     133.282 133.782 139.985  0.00  0.00    -0.302 OA
BRANCH  23  24
ATOM     24  C           0     133.336 134.874 139.198  0.00  0.00     0.358 C 
ATOM     25  N           0     133.544 136.088 139.744  0.00  0.00    -0.346 N 
ATOM     26  H           0     133.656 136.177 140.704  0.00  0.00     0.161 HD
ATOM     27  H           0     133.582 136.875 139.177  0.00  0.00     0.161 HD
ATOM     28  O           0     133.196 134.763 137.996  0.00  0.00    -0.239 OA
ENDBRANCH  23  24
ENDBRANCH  22  23
ENDBRANCH   6  22
BRANCH  18  29
ATOM     29  O           0     137.612 131.450 143.890  0.00  0.00    -0.362 OA
ATOM     30  H           0     138.469 131.214 143.508  0.00  0.00     0.213 HD
ENDBRANCH  18  29
BRANCH  18  31
ATOM     31  O           0     136.831 132.125 141.781  0.00  0.00    -0.362 OA
ATOM     32  H           0     135.981 131.665 141.799  0.00  0.00     0.213 HD
ENDBRANCH  18  31
TORSDOF 5
ENDMDL
MODEL 3
REMARK VINA RESULT:      -6.8      8.091     10.191
REMARK  5 active torsions:
REMARK  status: ('A' for Active; 'I' for Inactive)
REMARK    1  A    between atoms: C_6  and  C_7 
REMARK    2  A    between atoms: C_7  and  O_8 
REMARK    3  A    between atoms: O_8  and  C_9 
REMARK       I    between atoms: C_9  and  N_10 
REMARK    4  A    between atoms: C_23  and  O_24 
REMARK    5  A    between atoms: C_23  and  O_25 
ROOT
ATOM      1  N           0     131.426 132.160 134.958  0.00  0.00    -0.235 N 
ATOM      2  H           0     130.838 131.810 135.645  0.00  0.00     0.174 HD
ATOM      3  H           0     131.802 131.563 134.292  0.00  0.00     0.174 HD
ATOM      4  C           0     131.708 133.432 134.926  0.00  0.00     0.672 C 
ATOM      5  N           0     131.193 134.324 135.850  0.00  0.00    -0.218 N 
ATOM      6  C           0     131.970 135.519 136.166  0.00  0.00     0.151 C 
ATOM      7  C           0     132.399 136.280 134.926  0.00  0.00     0.180 C 
ATOM      8  N           0     131.247 137.041 134.399  0.00  0.00    -0.216 N 
ATOM      9  C           0     131.289 136.960 133.029  0.00  0.00     0.670 C 
ATOM     10  N           0     130.670 137.780 132.227  0.00  0.00    -0.235 N 
ATOM     11  H           0     130.139 138.505 132.591  0.00  0.00     0.174 HD
ATOM     12  H           0     130.742 137.666 131.266  0.00  0.00     0.174 HD
ATOM     13  C           0     132.814 135.392 133.764  0.00  0.00     0.217 C 
ATOM     14  N           0     132.063 135.907 132.607  0.00  0.00    -0.191 N 
ATOM     15  N           0     132.538 133.972 133.979  0.00  0.00    -0.183 N 
ATOM     16  C           0     133.383 133.258 133.004  0.00  0.00     0.150 C 
ATOM     17  C           0     134.706 134.062 132.983  0.00  0.00     0.093 C 
ATOM     18  C           0     134.325 135.478 133.486  0.00  0.00     0.209 C 
ATOM     19  H           0     130.337 134.160 136.276  0.00  0.00     0.178 HD
ATOM     20  H           0     130.582 137.513 134.925  0.00  0.00     0.178 HD
ATOM     21  H           0     132.109 135.563 131.702  0.00  0.00     0.180 HD
ENDROOT
BRANCH   6  22
ATOM     22  C           0     133.218 135.104 136.947  0.00  0.00     0.208 C 
BRANCH  22  23
ATOM     23  O           0     132.826 134.335 138.114  0.00  0.00    -0.302 OA
BRANCH  23  24
ATOM     24  C           0     133.044 134.826 139.349  0.00  0.00     0.358 C 
ATOM     25  N           0     133.524 136.076 139.502  0.00  0.00    -0.346 N 
ATOM     26  H           0     133.713 136.623 138.723  0.00  0.00     0.161 HD
ATOM     27  H           0     133.682 136.429 140.392  0.00  0.00     0.161 HD
ATOM     28  O           0     132.807 134.142 140.325  0.00  0.00    -0.239 OA
ENDBRANCH  23  24
ENDBRANCH  22  23
ENDBRANCH   6  22
BRANCH  18  29
ATOM     29  O           0     134.597 136.454 132.478  0.00  0.00    -0.362 OA
ATOM     30  H           0     133.853 137.072 132.480  0.00  0.00     0.213 HD
ENDBRANCH  18  29
BRANCH  18  31
ATOM     31  O           0     135.035 135.788 134.687  0.00  0.00    -0.362 OA
ATOM     32  H           0     135.919 136.077 134.422  0.00  0.00     0.213 HD
ENDBRANCH  18  31
TORSDOF 5
ENDMDL
MODEL 4
REMARK VINA RESULT:      -6.6      2.231      5.464
REMARK  5 active torsions:
REMARK  status: ('A' for Active; 'I' for Inactive)
REMARK    1  A    between atoms: C_6  and  C_7 
REMARK    2  A    between atoms: C_7  and  O_8 
REMARK    3  A    between atoms: O_8  and  C_9 
REMARK       I    between atoms: C_9  and  N_10 
REMARK    4  A    between atoms: C_23  and  O_24 
REMARK    5  A    between atoms: C_23  and  O_25 
ROOT
ATOM      1  N           0     134.796 131.166 142.863  0.00  0.00    -0.235 N 
ATOM      2  H           0     134.858 131.454 141.939  0.00  0.00     0.174 HD
ATOM      3  H           0     134.099 130.546 143.131  0.00  0.00     0.174 HD
ATOM      4  C           0     135.650 131.606 143.743  0.00  0.00     0.672 C 
ATOM      5  N           0     136.664 132.487 143.409  0.00  0.00    -0.218 N 
ATOM      6  C           0     137.158 133.397 144.439  0.00  0.00     0.151 C 
ATOM      7  C           0     137.526 132.680 145.724  0.00  0.00     0.180 C 
ATOM      8  N           0     138.828 132.005 145.548  0.00  0.00    -0.216 N 
ATOM      9  C           0     138.752 130.786 146.177  0.00  0.00     0.670 C 
ATOM     10  N           0     139.788 130.083 146.541  0.00  0.00    -0.235 N 
ATOM     11  H           0     140.683 130.416 146.371  0.00  0.00     0.174 HD
ATOM     12  H           0     139.663 129.229 146.983  0.00  0.00     0.174 HD
ATOM     13  C           0     136.577 131.553 146.100  0.00  0.00     0.217 C 
ATOM     14  N           0     137.450 130.400 146.376  0.00  0.00    -0.191 N 
ATOM     15  N           0     135.599 131.233 145.061  0.00  0.00    -0.183 N 
ATOM     16  C           0     134.532 130.481 145.747  0.00  0.00     0.150 C 
ATOM     17  C           0     134.390 131.184 147.119  0.00  0.00     0.093 C 
ATOM     18  C           0     135.749 131.893 147.351  0.00  0.00     0.209 C 
ATOM     19  H           0     137.038 132.499 142.514  0.00  0.00     0.178 HD
ATOM     20  H           0     139.598 132.357 145.074  0.00  0.00     0.178 HD
ATOM     21  H           0     137.156 129.519 146.654  0.00  0.00     0.180 HD
ENDROOT
BRANCH   6  22
ATOM     22  C           0     136.073 134.431 144.745  0.00  0.00     0.208 C 
BRANCH  22  23
ATOM     23  O           0     135.937 135.338 143.620  0.00  0.00    -0.302 OA
BRANCH  23  24
ATOM     24  C           0     134.767 135.421 142.959  0.00  0.00     0.358 C 
ATOM     25  N           0     134.342 136.609 142.486  0.00  0.00    -0.346 N 
ATOM     26  H           0     134.880 137.406 142.622  0.00  0.00     0.161 HD
ATOM     27  H           0     133.499 136.669 142.010  0.00  0.00     0.161 HD
ATOM     28  O           0     134.094 134.423 142.788  0.00  0.00    -0.239 OA
ENDBRANCH  23  24
ENDBRANCH  22  23
ENDBRANCH   6  22
BRANCH  18  29
ATOM     29  O           0     136.381 131.383 148.527  0.00  0.00    -0.362 OA
ATOM     30  H           0     135.925 130.561 148.755  0.00  0.00     0.213 HD
ENDBRANCH  18  29
BRANCH  18  31
ATOM     31  O           0     135.563 133.306 147.456  0.00  0.00    -0.362 OA
ATOM     32  H           0     136.013 133.703 146.697  0.00  0.00     0.213 HD
ENDBRANCH  18  31
TORSDOF 5
ENDMDL
MODEL 5
REMARK VINA RESULT:      -6.5      2.642      4.592
REMARK  5 active torsions:
REMARK  status: ('A' for Active; 'I' for Inactive)
REMARK    1  A    between atoms: C_6  and  C_7 
REMARK    2  A    between atoms: C_7  and  O_8 
REMARK    3  A    between atoms: O_8  and  C_9 
REMARK       I    between atoms: C_9  and  N_10 
REMARK    4  A    between atoms: C_23  and  O_24 
REMARK    5  A    between atoms: C_23  and  O_25 
ROOT
ATOM      1  N           0     136.220 134.732 148.138  0.00  0.00    -0.235 N 
ATOM      2  H           0     136.325 135.671 147.921  0.00  0.00     0.174 HD
ATOM      3  H           0     136.223 134.445 149.065  0.00  0.00     0.174 HD
ATOM      4  C           0     136.072 133.854 147.186  0.00  0.00     0.672 C 
ATOM      5  N           0     136.057 134.214 145.849  0.00  0.00    -0.218 N 
ATOM      6  C           0     136.509 133.235 144.865  0.00  0.00     0.151 C 
ATOM      7  C           0     135.830 131.889 145.025  0.00  0.00     0.180 C 
ATOM      8  N           0     134.461 131.967 144.473  0.00  0.00    -0.216 N 
ATOM      9  C           0     133.636 131.254 145.309  0.00  0.00     0.670 C 
ATOM     10  N           0     132.462 130.802 144.969  0.00  0.00    -0.235 N 
ATOM     11  H           0     132.121 130.963 144.075  0.00  0.00     0.174 HD
ATOM     12  H           0     131.930 130.304 145.609  0.00  0.00     0.174 HD
ATOM     13  C           0     135.618 131.467 146.470  0.00  0.00     0.217 C 
ATOM     14  N           0     134.201 131.076 146.547  0.00  0.00    -0.191 N 
ATOM     15  N           0     135.926 132.516 147.442  0.00  0.00    -0.183 N 
ATOM     16  C           0     136.100 131.817 148.729  0.00  0.00     0.150 C 
ATOM     17  C           0     136.834 130.506 148.356  0.00  0.00     0.093 C 
ATOM     18  C           0     136.511 130.275 146.858  0.00  0.00     0.209 C 
ATOM     19  H           0     135.754 135.092 145.574  0.00  0.00     0.178 HD
ATOM     20  H           0     134.192 132.436 143.668  0.00  0.00     0.178 HD
ATOM     21  H           0     133.745 130.747 147.337  0.00  0.00     0.180 HD
ENDROOT
BRANCH   6  22
ATOM     22  C           0     138.020 133.045 145.015  0.00  0.00     0.208 C 
BRANCH  22  23
ATOM     23  O           0     138.660 133.206 143.722  0.00  0.00    -0.302 OA
BRANCH  23  24
ATOM     24  C           0     138.240 134.168 142.878  0.00  0.00     0.358 C 
ATOM     25  N           0     137.279 133.898 141.973  0.00  0.00    -0.346 N 
ATOM     26  H           0     136.888 133.010 141.930  0.00  0.00     0.161 HD
ATOM     27  H           0     136.977 134.590 141.364  0.00  0.00     0.161 HD
ATOM     28  O           0     138.729 135.279 142.933  0.00  0.00    -0.239 OA
ENDBRANCH  23  24
ENDBRANCH  22  23
ENDBRANCH   6  22
BRANCH  18  29
ATOM     29  O           0     135.809 129.043 146.684  0.00  0.00    -0.362 OA
ATOM     30  H           0     135.940 128.774 145.765  0.00  0.00     0.213 HD
ENDBRANCH  18  29
BRANCH  18  31
ATOM     31  O           0     137.711 130.281 146.082  0.00  0.00    -0.362 OA
ATOM     32  H           0     137.594 130.947 145.391  0.00  0.00     0.213 HD
ENDBRANCH  18  31
TORSDOF 5
ENDMDL
MODEL 6
REMARK VINA RESULT:      -6.4      9.839     12.216
REMARK  5 active torsions:
REMARK  status: ('A' for Active; 'I' for Inactive)
REMARK    1  A    between atoms: C_6  and  C_7 
REMARK    2  A    between atoms: C_7  and  O_8 
REMARK    3  A    between atoms: O_8  and  C_9 
REMARK       I    between atoms: C_9  and  N_10 
REMARK    4  A    between atoms: C_23  and  O_24 
REMARK    5  A    between atoms: C_23  and  O_25 
ROOT
ATOM      1  N           0     131.804 133.821 131.223  0.00  0.00    -0.235 N 
ATOM      2  H           0     132.237 134.681 131.335  0.00  0.00     0.174 HD
ATOM      3  H           0     131.267 133.647 130.433  0.00  0.00     0.174 HD
ATOM      4  C           0     131.944 132.896 132.131  0.00  0.00     0.672 C 
ATOM      5  N           0     132.701 133.093 133.272  0.00  0.00    -0.218 N 
ATOM      6  C           0     132.342 132.352 134.478  0.00  0.00     0.151 C 
ATOM      7  C           0     132.199 130.863 134.227  0.00  0.00     0.180 C 
ATOM      8  N           0     133.543 130.256 134.128  0.00  0.00    -0.216 N 
ATOM      9  C           0     133.501 129.317 133.125  0.00  0.00     0.670 C 
ATOM     10  N           0     134.362 128.349 132.992  0.00  0.00    -0.235 N 
ATOM     11  H           0     135.092 128.258 133.625  0.00  0.00     0.174 HD
ATOM     12  H           0     134.274 127.719 132.260  0.00  0.00     0.174 HD
ATOM     13  C           0     131.542 130.516 132.901  0.00  0.00     0.217 C 
ATOM     14  N           0     132.438 129.525 132.281  0.00  0.00    -0.191 N 
ATOM     15  N           0     131.346 131.668 132.020  0.00  0.00    -0.183 N 
ATOM     16  C           0     130.334 131.240 131.037  0.00  0.00     0.150 C 
ATOM     17  C           0     129.338 130.387 131.860  0.00  0.00     0.093 C 
ATOM     18  C           0     130.143 129.906 133.094  0.00  0.00     0.209 C 
ATOM     19  H           0     133.452 133.707 133.271  0.00  0.00     0.178 HD
ATOM     20  H           0     134.315 130.478 134.671  0.00  0.00     0.178 HD
ATOM     21  H           0     132.300 129.092 131.425  0.00  0.00     0.180 HD
ENDROOT
BRANCH   6  22
ATOM     22  C           0     131.014 132.892 135.011  0.00  0.00     0.208 C 
BRANCH  22  23
ATOM     23  O           0     131.131 133.147 136.435  0.00  0.00    -0.302 OA
BRANCH  23  24
ATOM     24  C           0     130.615 132.274 137.321  0.00  0.00     0.358 C 
ATOM     25  N           0     129.666 131.401 136.932  0.00  0.00    -0.346 N 
ATOM     26  H           0     129.353 131.401 136.013  0.00  0.00     0.161 HD
ATOM     27  H           0     129.294 130.772 137.570  0.00  0.00     0.161 HD
ATOM     28  O           0     131.007 132.274 138.471  0.00  0.00    -0.239 OA
ENDBRANCH  23  24
ENDBRANCH  22  23
ENDBRANCH   6  22
BRANCH  18  29
ATOM     29  O           0     130.214 128.480 133.117  0.00  0.00    -0.362 OA
ATOM     30  H           0     129.330 128.152 132.901  0.00  0.00     0.213 HD
ENDBRANCH  18  29
BRANCH  18  31
ATOM     31  O           0     129.549 130.397 134.298  0.00  0.00    -0.362 OA
ATOM     32  H           0     130.050 130.015 135.032  0.00  0.00     0.213 HD
ENDBRANCH  18  31
TORSDOF 5
ENDMDL
MODEL 7
REMARK VINA RESULT:      -6.3      9.869     11.533
REMARK  5 active torsions:
REMARK  status: ('A' for Active; 'I' for Inactive)
REMARK    1  A    between atoms: C_6  and  C_7 
REMARK    2  A    between atoms: C_7  and  O_8 
REMARK    3  A    between atoms: O_8  and  C_9 
REMARK       I    between atoms: C_9  and  N_10 
REMARK    4  A    between atoms: C_23  and  O_24 
REMARK    5  A    between atoms: C_23  and  O_25 
ROOT
ATOM      1  N           0     134.480 133.470 132.306  0.00  0.00    -0.235 N 
ATOM      2  H           0     134.496 132.835 131.574  0.00  0.00     0.174 HD
ATOM      3  H           0     135.311 133.836 132.648  0.00  0.00     0.174 HD
ATOM      4  C           0     133.343 133.835 132.829  0.00  0.00     0.672 C 
ATOM      5  N           0     132.131 133.346 132.373  0.00  0.00    -0.218 N 
ATOM      6  C           0     131.018 133.269 133.315  0.00  0.00     0.151 C 
ATOM      7  C           0     130.782 134.575 134.048  0.00  0.00     0.180 C 
ATOM      8  N           0     130.091 135.520 133.147  0.00  0.00    -0.216 N 
ATOM      9  C           0     130.631 136.765 133.359  0.00  0.00     0.670 C 
ATOM     10  N           0     130.049 137.883 133.025  0.00  0.00    -0.235 N 
ATOM     11  H           0     129.178 137.867 132.598  0.00  0.00     0.174 HD
ATOM     12  H           0     130.487 138.730 133.204  0.00  0.00     0.174 HD
ATOM     13  C           0     132.056 135.307 134.440  0.00  0.00     0.217 C 
ATOM     14  N           0     131.860 136.687 133.966  0.00  0.00    -0.191 N 
ATOM     15  N           0     133.270 134.725 133.869  0.00  0.00    -0.183 N 
ATOM     16  C           0     134.378 135.254 134.686  0.00  0.00     0.150 C 
ATOM     17  C           0     133.817 135.265 136.129  0.00  0.00     0.093 C 
ATOM     18  C           0     132.276 135.303 135.962  0.00  0.00     0.209 C 
ATOM     19  H           0     132.024 133.062 131.452  0.00  0.00     0.178 HD
ATOM     20  H           0     129.384 135.302 132.519  0.00  0.00     0.178 HD
ATOM     21  H           0     132.490 137.417 134.069  0.00  0.00     0.180 HD
ENDROOT
BRANCH   6  22
ATOM     22  C           0     131.315 132.174 134.341  0.00  0.00     0.208 C 
BRANCH  22  23
ATOM     23  O           0     131.115 130.872 133.733  0.00  0.00    -0.302 OA
BRANCH  23  24
ATOM     24  C           0     132.170 130.069 133.496  0.00  0.00     0.358 C 
ATOM     25  N           0     132.013 128.730 133.507  0.00  0.00    -0.346 N 
ATOM     26  H           0     131.141 128.344 133.686  0.00  0.00     0.161 HD
ATOM     27  H           0     132.773 128.151 133.338  0.00  0.00     0.161 HD
ATOM     28  O           0     133.262 130.551 133.273  0.00  0.00    -0.239 OA
ENDBRANCH  23  24
ENDBRANCH  22  23
ENDBRANCH   6  22
BRANCH  18  29
ATOM     29  O           0     131.741 136.489 136.551  0.00  0.00    -0.362 OA
ATOM     30  H           0     132.079 137.235 136.036  0.00  0.00     0.213 HD
ENDBRANCH  18  29
BRANCH  18  31
ATOM     31  O           0     131.683 134.142 136.547  0.00  0.00    -0.362 OA
ATOM     32  H           0     132.332 133.429 136.472  0.00  0.00     0.213 HD
ENDBRANCH  18  31
TORSDOF 5
ENDMDL
MODEL 8
REMARK VINA RESULT:      -6.3      4.124      6.313
REMARK  5 active torsions:
REMARK  status: ('A' for Active; 'I' for Inactive)
REMARK    1  A    between atoms: C_6  and  C_7 
REMARK    2  A    between atoms: C_7  and  O_8 
REMARK    3  A    between atoms: O_8  and  C_9 
REMARK       I    between atoms: C_9  and  N_10 
REMARK    4  A    between atoms: C_23  and  O_24 
REMARK    5  A    between atoms: C_23  and  O_25 
ROOT
ATOM      1  N           0     134.505 132.295 149.410  0.00  0.00    -0.235 N 
ATOM      2  H           0     134.034 132.018 150.211  0.00  0.00     0.174 HD
ATOM      3  H           0     134.520 133.231 149.156  0.00  0.00     0.174 HD
ATOM      4  C           0     135.121 131.410 148.677  0.00  0.00     0.672 C 
ATOM      5  N           0     135.132 130.064 149.000  0.00  0.00    -0.218 N 
ATOM      6  C           0     135.257 129.094 147.917  0.00  0.00     0.151 C 
ATOM      7  C           0     136.424 129.393 146.996  0.00  0.00     0.180 C 
ATOM      8  N           0     137.681 128.978 147.653  0.00  0.00    -0.216 N 
ATOM      9  C           0     138.631 129.929 147.370  0.00  0.00     0.670 C 
ATOM     10  N           0     139.916 129.733 147.466  0.00  0.00    -0.235 N 
ATOM     11  H           0     140.254 128.870 147.753  0.00  0.00     0.174 HD
ATOM     12  H           0     140.533 130.449 147.250  0.00  0.00     0.174 HD
ATOM     13  C           0     136.630 130.873 146.715  0.00  0.00     0.217 C 
ATOM     14  N           0     138.060 131.113 146.973  0.00  0.00    -0.191 N 
ATOM     15  N           0     135.795 131.752 147.534  0.00  0.00    -0.183 N 
ATOM     16  C           0     135.792 133.050 146.835  0.00  0.00     0.150 C 
ATOM     17  C           0     135.736 132.677 145.334  0.00  0.00     0.093 C 
ATOM     18  C           0     136.295 131.233 145.257  0.00  0.00     0.209 C 
ATOM     19  H           0     135.060 129.774 149.922  0.00  0.00     0.178 HD
ATOM     20  H           0     137.812 128.179 148.188  0.00  0.00     0.178 HD
ATOM     21  H           0     138.520 131.961 146.876  0.00  0.00     0.180 HD
ENDROOT
BRANCH   6  22
ATOM     22  C           0     133.966 129.103 147.096  0.00  0.00     0.208 C 
BRANCH  22  23
ATOM     23  O           0     132.874 128.592 147.904  0.00  0.00    -0.302 OA
BRANCH  23  24
ATOM     24  C           0     132.175 127.518 147.491  0.00  0.00     0.358 C 
ATOM     25  N           0     132.823 126.405 147.093  0.00  0.00    -0.346 N 
ATOM     26  H           0     133.793 126.377 147.103  0.00  0.00     0.161 HD
ATOM     27  H           0     132.319 125.631 146.794  0.00  0.00     0.161 HD
ATOM     28  O           0     130.961 127.552 147.477  0.00  0.00    -0.239 OA
ENDBRANCH  23  24
ENDBRANCH  22  23
ENDBRANCH   6  22
BRANCH  18  29
ATOM     29  O           0     137.471 131.198 144.447  0.00  0.00    -0.362 OA
ATOM     30  H           0     137.949 130.391 144.684  0.00  0.00     0.213 HD
ENDBRANCH  18  29
BRANCH  18  31
ATOM     31  O           0     135.304 130.342 144.740  0.00  0.00    -0.362 OA
ATOM     32  H           0     135.528 129.458 145.063  0.00  0.00     0.213 HD
ENDBRANCH  18  31
TORSDOF 5
ENDMDL
MODEL 9
REMARK VINA RESULT:      -6.3      2.705      4.970
REMARK  5 active torsions:
REMARK  status: ('A' for Active; 'I' for Inactive)
REMARK    1  A    between atoms: C_6  and  C_7 
REMARK    2  A    between atoms: C_7  and  O_8 
REMARK    3  A    between atoms: O_8  and  C_9 
REMARK       I    between atoms: C_9  and  N_10 
REMARK    4  A    between atoms: C_23  and  O_24 
REMARK    5  A    between atoms: C_23  and  O_25 
ROOT
ATOM      1  N           0     139.104 130.469 145.882  0.00  0.00    -0.235 N 
ATOM      2  H           0     139.821 130.553 145.235  0.00  0.00     0.174 HD
ATOM      3  H           0     139.129 129.759 146.543  0.00  0.00     0.174 HD
ATOM      4  C           0     138.110 131.311 145.867  0.00  0.00     0.672 C 
ATOM      5  N           0     138.031 132.343 144.948  0.00  0.00    -0.218 N 
ATOM      6  C           0     136.709 132.829 144.564  0.00  0.00     0.151 C 
ATOM      7  C           0     135.839 133.162 145.760  0.00  0.00     0.180 C 
ATOM      8  N           0     136.266 134.459 146.325  0.00  0.00    -0.216 N 
ATOM      9  C           0     136.205 134.354 147.694  0.00  0.00     0.670 C 
ATOM     10  N           0     136.157 135.373 148.505  0.00  0.00    -0.235 N 
ATOM     11  H           0     136.161 136.276 148.150  0.00  0.00     0.174 HD
ATOM     12  H           0     136.115 135.228 149.463  0.00  0.00     0.174 HD
ATOM     13  C           0     135.981 132.192 146.921  0.00  0.00     0.217 C 
ATOM     14  N           0     136.203 133.044 148.102  0.00  0.00    -0.191 N 
ATOM     15  N           0     137.071 131.230 146.758  0.00  0.00    -0.183 N 
ATOM     16  C           0     136.776 130.140 147.706  0.00  0.00     0.150 C 
ATOM     17  C           0     135.237 129.980 147.639  0.00  0.00     0.093 C 
ATOM     18  C           0     134.713 131.343 147.121  0.00  0.00     0.209 C 
ATOM     19  H           0     138.834 132.734 144.570  0.00  0.00     0.178 HD
ATOM     20  H           0     136.539 135.242 145.822  0.00  0.00     0.178 HD
ATOM     21  H           0     136.324 132.732 149.012  0.00  0.00     0.180 HD
ENDROOT
BRANCH   6  22
ATOM     22  C           0     136.012 131.752 143.731  0.00  0.00     0.208 C 
BRANCH  22  23
ATOM     23  O           0     134.755 132.270 143.222  0.00  0.00    -0.302 OA
BRANCH  23  24
ATOM     24  C           0     134.725 132.933 142.050  0.00  0.00     0.358 C 
ATOM     25  N           0     135.822 132.971 141.269  0.00  0.00    -0.346 N 
ATOM     26  H           0     136.635 132.522 141.551  0.00  0.00     0.161 HD
ATOM     27  H           0     135.800 133.449 140.425  0.00  0.00     0.161 HD
ATOM     28  O           0     133.707 133.496 141.697  0.00  0.00    -0.239 OA
ENDBRANCH  23  24
ENDBRANCH  22  23
ENDBRANCH   6  22
BRANCH  18  29
ATOM     29  O           0     133.851 131.945 148.088  0.00  0.00    -0.362 OA
ATOM     30  H           0     133.083 131.364 148.178  0.00  0.00     0.213 HD
ENDBRANCH  18  29
BRANCH  18  31
ATOM     31  O           0     134.028 131.174 145.878  0.00  0.00    -0.362 OA
ATOM     32  H           0     134.669 131.362 145.178  0.00  0.00     0.213 HD
ENDBRANCH  18  31
TORSDOF 5
ENDMDL
