# created with PyMOL 2.3.4
@<TRIPOS>MOLECULE
ligand_out_0001
46 49 1                 
SMALL
USER_CHARGES
@<TRIPOS>ATOM
1	   N	135.904	134.627	146.592	N.3	1	UNK0	-0.235	
2	   N	136.626	134.931	144.375	N.3	1	UNK0	-0.218	
3	   N	135.217	134.152	141.747	N.3	1	UNK0	-0.216	
4	   N	132.961	133.921	141.073	N.3	1	UNK0	-0.235	
5	   N	133.815	132.912	143.033	N.3	1	UNK0	-0.191	
6	   N	135.305	133.091	144.930	N.3	1	UNK0	-0.183	
7	   N	138.373	132.355	147.240	N.pl3	1	UNK0	-0.335	
8	   N	136.435	130.949	149.459	N.pl3	1	UNK0	-0.359	
9	   N	133.410	128.997	149.004	N.pl3	1	UNK0	-0.288	
10	   C	135.940	134.230	145.351	C.3	1	UNK0	0.672	
11	   C	137.153	134.188	143.234	C.3	1	UNK0	0.151	
12	   C	136.109	133.310	142.573	C.3	1	UNK0	0.180	
13	   C	133.937	133.677	141.901	C.3	1	UNK0	0.670	
14	   C	135.164	132.627	143.550	C.3	1	UNK0	0.217	
15	   C	134.675	132.047	145.759	C.3	1	UNK0	0.150	
16	   C	135.072	130.720	145.070	C.3	1	UNK0	0.093	
17	   C	135.393	131.107	143.604	C.3	1	UNK0	0.209	
18	   C	138.308	133.306	143.709	C.2	1	UNK0	0.208	
19	   C	138.475	132.277	145.899	C.2	1	UNK0	0.360	
20	   C	138.426	131.136	148.050	C.3	1	UNK0	0.144	
21	   C	137.825	131.413	149.430	C.3	1	UNK0	0.142	
22	   C	135.428	131.827	149.284	C.2	1	UNK0	0.219	
23	   C	133.999	131.351	149.314	C.3	1	UNK0	0.123	
24	   C	133.934	129.969	149.967	C.3	1	UNK0	0.144	
25	   C	132.118	128.650	148.957	C.2	1	UNK0	0.226	
26	   C	131.916	127.635	147.852	C.3	1	UNK0	0.112	
27	   C	133.332	127.447	147.271	C.3	1	UNK0	0.112	
28	   C	134.184	128.379	148.104	C.2	1	UNK0	0.226	
29	   O	138.425	133.398	145.154	O.2	1	UNK0	-0.302	
30	   O	138.610	131.196	145.361	O.co2	1	UNK0	-0.239	
31	   O	135.672	133.001	149.102	O.2	1	UNK0	-0.274	
32	   O	131.247	129.084	149.678	O.2	1	UNK0	-0.273	
33	   O	135.379	128.541	147.976	O.2	1	UNK0	-0.273	
34	   O	134.511	130.432	142.705	O.2	1	UNK0	-0.362	
35	   O	136.753	130.799	143.294	O.2	1	UNK0	-0.362	
36	   H	136.368	135.437	146.857	 H	1	UNK0	0.174	
37	   H	135.409	134.114	147.251	 H	1	UNK0	0.174	
38	   H	133.116	134.472	140.289	 H	1	UNK0	0.174	
39	   H	132.079	133.554	141.241	 H	1	UNK0	0.174	
40	   H	136.752	135.890	144.446	 H	1	UNK0	0.178	
41	   H	135.486	134.904	141.197	 H	1	UNK0	0.178	
42	   H	132.981	132.607	143.425	 H	1	UNK0	0.180	
43	   H	138.265	133.218	147.669	 H	1	UNK0	0.164	
44	   H	136.240	130.010	149.605	 H	1	UNK0	0.162	
45	   H	134.235	129.617	143.144	 H	1	UNK0	0.213	
46	   H	136.908	131.096	142.386	 H	1	UNK0	0.213	
@<TRIPOS>BOND
1 1 10 1
2 1 36 1
3 1 37 1
4 2 11 1
5 2 40 1
6 3 13 1
7 3 41 1
8 4 38 1
9 4 39 1
10 5 42 1
11 6 15 1
12 7 20 1
13 7 43 1
14 8 22 1
15 8 44 1
16 9 25 1
17 9 28 1
18 2 10 1
19 6 10 1
20 11 12 1
21 11 18 1
22 3 12 1
23 12 14 1
24 4 13 1
25 5 13 1
26 5 14 1
27 6 14 1
28 14 17 1
29 15 16 1
30 16 17 1
31 17 34 2
32 17 35 2
33 18 29 2
34 7 19 1
35 19 30 2
36 20 21 1
37 8 21 1
38 22 23 1
39 22 31 2
40 23 24 1
41 9 24 1
42 25 26 1
43 25 32 2
44 26 27 1
45 27 28 1
46 28 33 2
47 19 29 2
48 34 45 1
49 35 46 1
@<TRIPOS>SUBSTRUCTURE
1	UNK0	1	GROUP	1 ****	UNK
