# created with PyMOL 2.3.4
@<TRIPOS>MOLECULE
ligand_out_0001
46 49 1                 
SMALL
USER_CHARGES
@<TRIPOS>ATOM
1	   N	135.002	132.228	146.699	N.3	1	UNK0	-0.235	
2	   N	136.456	133.943	146.008	N.3	1	UNK0	-0.218	
3	   N	136.152	135.924	143.667	N.3	1	UNK0	-0.216	
4	   N	134.316	136.911	142.550	N.3	1	UNK0	-0.235	
5	   N	134.468	134.584	142.939	N.3	1	UNK0	-0.191	
6	   N	135.154	132.813	144.438	N.3	1	UNK0	-0.183	
7	   N	139.874	130.645	146.748	N.pl3	1	UNK0	-0.335	
8	   N	139.919	129.124	148.889	N.pl3	1	UNK0	-0.359	
9	   N	135.944	129.123	148.812	N.pl3	1	UNK0	-0.288	
10	   C	135.513	132.963	145.752	C.3	1	UNK0	0.672	
11	   C	137.411	134.275	144.954	C.3	1	UNK0	0.151	
12	   C	136.740	134.568	143.626	C.3	1	UNK0	0.180	
13	   C	134.940	135.870	143.023	C.3	1	UNK0	0.670	
14	   C	135.555	133.665	143.318	C.3	1	UNK0	0.217	
15	   C	134.340	131.740	143.839	C.3	1	UNK0	0.150	
16	   C	135.050	131.421	142.501	C.3	1	UNK0	0.093	
17	   C	135.853	132.701	142.157	C.3	1	UNK0	0.209	
18	   C	138.373	133.100	144.771	C.2	1	UNK0	0.208	
19	   C	139.892	131.882	146.216	C.2	1	UNK0	0.360	
20	   C	141.125	129.897	146.905	C.3	1	UNK0	0.144	
21	   C	140.906	128.736	147.878	C.3	1	UNK0	0.142	
22	   C	138.904	128.293	149.192	C.2	1	UNK0	0.219	
23	   C	137.888	128.691	150.232	C.3	1	UNK0	0.123	
24	   C	136.958	129.760	149.655	C.3	1	UNK0	0.144	
25	   C	134.922	128.418	149.317	C.2	1	UNK0	0.226	
26	   C	134.064	127.905	148.181	C.3	1	UNK0	0.112	
27	   C	134.780	128.432	146.921	C.3	1	UNK0	0.112	
28	   C	135.963	129.192	147.476	C.2	1	UNK0	0.226	
29	   O	138.742	132.569	146.071	O.2	1	UNK0	-0.302	
30	   O	140.944	132.379	145.866	O.co2	1	UNK0	-0.239	
31	   O	138.807	127.222	148.630	O.2	1	UNK0	-0.274	
32	   O	134.715	128.229	150.495	O.2	1	UNK0	-0.273	
33	   O	136.799	129.773	146.816	O.2	1	UNK0	-0.273	
34	   O	135.405	133.253	140.917	O.2	1	UNK0	-0.362	
35	   O	137.251	132.412	142.098	O.2	1	UNK0	-0.362	
36	   H	135.282	132.358	147.619	 H	1	UNK0	0.174	
37	   H	134.340	131.552	146.484	 H	1	UNK0	0.174	
38	   H	134.706	137.795	142.644	 H	1	UNK0	0.174	
39	   H	133.460	136.804	142.106	 H	1	UNK0	0.174	
40	   H	136.481	134.397	146.864	 H	1	UNK0	0.178	
41	   H	136.550	136.709	144.074	 H	1	UNK0	0.178	
42	   H	133.572	134.324	142.672	 H	1	UNK0	0.180	
43	   H	139.034	130.248	147.027	 H	1	UNK0	0.164	
44	   H	139.997	129.980	149.339	 H	1	UNK0	0.162	
45	   H	136.082	133.048	140.259	 H	1	UNK0	0.213	
46	   H	137.636	133.021	141.453	 H	1	UNK0	0.213	
@<TRIPOS>BOND
1 1 10 1
2 1 36 1
3 1 37 1
4 2 11 1
5 2 40 1
6 3 13 1
7 3 41 1
8 4 38 1
9 4 39 1
10 5 42 1
11 6 15 1
12 7 20 1
13 7 43 1
14 8 22 1
15 8 44 1
16 9 25 1
17 9 28 1
18 2 10 1
19 6 10 1
20 11 12 1
21 11 18 1
22 3 12 1
23 12 14 1
24 4 13 1
25 5 13 1
26 5 14 1
27 6 14 1
28 14 17 1
29 15 16 1
30 16 17 1
31 17 34 2
32 17 35 2
33 18 29 2
34 7 19 1
35 19 30 2
36 20 21 1
37 8 21 1
38 22 23 1
39 22 31 2
40 23 24 1
41 9 24 1
42 25 26 1
43 25 32 2
44 26 27 1
45 27 28 1
46 28 33 2
47 19 29 2
48 34 45 1
49 35 46 1
@<TRIPOS>SUBSTRUCTURE
1	UNK0	1	GROUP	1 ****	UNK
