# created with PyMOL 2.3.4
@<TRIPOS>MOLECULE
ligand_out_0001
30 32 1                 
SMALL
USER_CHARGES
@<TRIPOS>ATOM
1	   N	134.890	136.697	143.087	N.3	1	UNK0	-0.235	
2	   N	133.750	134.642	142.975	N.3	1	UNK0	-0.218	
3	   N	134.165	132.095	144.659	N.3	1	UNK0	-0.216	
4	   N	134.914	131.659	146.861	N.3	1	UNK0	-0.235	
5	   N	136.105	133.047	145.361	N.3	1	UNK0	-0.191	
6	   N	135.997	134.699	143.598	N.3	1	UNK0	-0.183	
7	   C	134.883	135.400	143.217	C.3	1	UNK0	0.672	
8	   C	133.925	133.263	142.528	C.3	1	UNK0	0.151	
9	   C	134.869	132.475	143.416	C.3	1	UNK0	0.180	
10	   C	135.053	132.232	145.698	C.3	1	UNK0	0.670	
11	   C	136.070	133.271	143.907	C.3	1	UNK0	0.217	
12	   C	137.379	135.196	143.727	C.3	1	UNK0	0.150	
13	   C	138.251	134.057	143.147	C.3	1	UNK0	0.093	
14	   C	137.382	132.781	143.270	C.3	1	UNK0	0.209	
15	   C	134.481	133.272	141.104	C.2	1	UNK0	0.206	
16	   C	133.390	134.846	139.625	C.2	1	UNK0	0.254	
17	   C	133.544	135.009	138.135	C.3	1	UNK0	0.126	
18	   O	133.424	133.622	140.173	O.2	1	UNK0	-0.320	
19	   O	133.238	135.818	140.326	O.co2	1	UNK0	-0.266	
20	   O	138.022	131.821	144.111	O.2	1	UNK0	-0.362	
21	   O	137.129	132.224	141.978	O.2	1	UNK0	-0.362	
22	   H	134.083	137.161	142.813	 H	1	UNK0	0.174	
23	   H	135.699	137.199	143.270	 H	1	UNK0	0.174	
24	   H	134.144	131.093	147.034	 H	1	UNK0	0.174	
25	   H	135.579	131.797	147.552	 H	1	UNK0	0.174	
26	   H	132.864	135.017	143.100	 H	1	UNK0	0.178	
27	   H	133.242	131.802	144.728	 H	1	UNK0	0.178	
28	   H	136.761	133.410	145.976	 H	1	UNK0	0.180	
29	   H	137.693	131.971	145.008	 H	1	UNK0	0.213	
30	   H	137.990	132.096	141.557	 H	1	UNK0	0.213	
@<TRIPOS>BOND
1 1 7 1
2 1 22 1
3 1 23 1
4 2 8 1
5 2 26 1
6 3 10 1
7 3 27 1
8 4 24 1
9 4 25 1
10 5 28 1
11 6 12 1
12 2 7 1
13 6 7 1
14 8 9 1
15 8 15 1
16 3 9 1
17 9 11 1
18 4 10 1
19 5 10 1
20 5 11 1
21 6 11 1
22 11 14 1
23 12 13 1
24 13 14 1
25 14 20 2
26 14 21 2
27 15 18 2
28 16 17 1
29 16 19 2
30 16 18 2
31 20 29 1
32 21 30 1
@<TRIPOS>SUBSTRUCTURE
1	UNK0	1	GROUP	1 ****	UNK
