MODEL 1
REMARK VINA RESULT:      -7.3      0.000      0.000
REMARK  5 active torsions:
REMARK  status: ('A' for Active; 'I' for Inactive)
REMARK    1  A    between atoms: C_6  and  C_7 
REMARK    2  A    between atoms: C_7  and  O_8 
REMARK    3  A    between atoms: O_8  and  C_9 
REMARK    4  A    between atoms: C_23  and  O_24 
REMARK    5  A    between atoms: C_23  and  O_25 
ROOT
ATOM      1  N           0     134.890 136.697 143.087  0.00  0.00    -0.235 N 
ATOM      2  H           0     134.083 137.161 142.813  0.00  0.00     0.174 HD
ATOM      3  H           0     135.699 137.199 143.270  0.00  0.00     0.174 HD
ATOM      4  C           0     134.883 135.400 143.217  0.00  0.00     0.672 C 
ATOM      5  N           0     133.750 134.642 142.975  0.00  0.00    -0.218 N 
ATOM      6  C           0     133.925 133.263 142.528  0.00  0.00     0.151 C 
ATOM      7  C           0     134.869 132.475 143.416  0.00  0.00     0.180 C 
ATOM      8  N           0     134.165 132.095 144.659  0.00  0.00    -0.216 N 
ATOM      9  C           0     135.053 132.232 145.698  0.00  0.00     0.670 C 
ATOM     10  N           0     134.914 131.659 146.861  0.00  0.00    -0.235 N 
ATOM     11  H           0     134.144 131.093 147.034  0.00  0.00     0.174 HD
ATOM     12  H           0     135.579 131.797 147.552  0.00  0.00     0.174 HD
ATOM     13  C           0     136.070 133.271 143.907  0.00  0.00     0.217 C 
ATOM     14  N           0     136.105 133.047 145.361  0.00  0.00    -0.191 N 
ATOM     15  N           0     135.997 134.699 143.598  0.00  0.00    -0.183 N 
ATOM     16  C           0     137.379 135.196 143.727  0.00  0.00     0.150 C 
ATOM     17  C           0     138.251 134.057 143.147  0.00  0.00     0.093 C 
ATOM     18  C           0     137.382 132.781 143.270  0.00  0.00     0.209 C 
ATOM     19  H           0     132.864 135.017 143.100  0.00  0.00     0.178 HD
ATOM     20  H           0     133.242 131.802 144.728  0.00  0.00     0.178 HD
ATOM     21  H           0     136.761 133.410 145.976  0.00  0.00     0.180 HD
ENDROOT
BRANCH   6  22
ATOM     22  C           0     134.481 133.272 141.104  0.00  0.00     0.206 C 
BRANCH  22  23
ATOM     23  O           0     133.424 133.622 140.173  0.00  0.00    -0.320 OA
BRANCH  23  24
ATOM     24  C           0     133.390 134.846 139.625  0.00  0.00     0.254 C 
ATOM     25  C           0     133.544 135.009 138.135  0.00  0.00     0.126 C 
ATOM     26  O           0     133.238 135.818 140.326  0.00  0.00    -0.266 OA
ENDBRANCH  23  24
ENDBRANCH  22  23
ENDBRANCH   6  22
BRANCH  18  27
ATOM     27  O           0     138.022 131.821 144.111  0.00  0.00    -0.362 OA
ATOM     28  H           0     137.693 131.971 145.008  0.00  0.00     0.213 HD
ENDBRANCH  18  27
BRANCH  18  29
ATOM     29  O           0     137.129 132.224 141.978  0.00  0.00    -0.362 OA
ATOM     30  H           0     137.990 132.096 141.557  0.00  0.00     0.213 HD
ENDBRANCH  18  29
TORSDOF 5
ENDMDL
MODEL 2
REMARK VINA RESULT:      -7.2      2.059      5.783
REMARK  5 active torsions:
REMARK  status: ('A' for Active; 'I' for Inactive)
REMARK    1  A    between atoms: C_6  and  C_7 
REMARK    2  A    between atoms: C_7  and  O_8 
REMARK    3  A    between atoms: O_8  and  C_9 
REMARK    4  A    between atoms: C_23  and  O_24 
REMARK    5  A    between atoms: C_23  and  O_25 
ROOT
ATOM      1  N           0     134.976 131.933 146.712  0.00  0.00    -0.235 N 
ATOM      2  H           0     135.226 132.022 147.645  0.00  0.00     0.174 HD
ATOM      3  H           0     134.313 131.276 146.449  0.00  0.00     0.174 HD
ATOM      4  C           0     135.525 132.701 145.814  0.00  0.00     0.672 C 
ATOM      5  N           0     136.469 133.659 146.141  0.00  0.00    -0.218 N 
ATOM      6  C           0     137.462 134.023 145.135  0.00  0.00     0.151 C 
ATOM      7  C           0     136.838 134.378 143.799  0.00  0.00     0.180 C 
ATOM      8  N           0     136.264 135.738 143.877  0.00  0.00    -0.216 N 
ATOM      9  C           0     135.073 135.725 143.192  0.00  0.00     0.670 C 
ATOM     10  N           0     134.475 136.793 142.743  0.00  0.00    -0.235 N 
ATOM     11  H           0     134.871 137.667 142.886  0.00  0.00     0.174 HD
ATOM     12  H           0     133.635 136.714 142.266  0.00  0.00     0.174 HD
ATOM     13  C           0     135.654 133.504 143.414  0.00  0.00     0.217 C 
ATOM     14  N           0     134.590 134.449 143.039  0.00  0.00    -0.191 N 
ATOM     15  N           0     135.207 132.610 144.484  0.00  0.00    -0.183 N 
ATOM     16  C           0     134.404 131.572 143.814  0.00  0.00     0.150 C 
ATOM     17  C           0     135.154 131.302 142.488  0.00  0.00     0.093 C 
ATOM     18  C           0     135.981 132.585 142.224  0.00  0.00     0.209 C 
ATOM     19  H           0     136.471 134.078 147.017  0.00  0.00     0.178 HD
ATOM     20  H           0     136.657 136.501 144.330  0.00  0.00     0.178 HD
ATOM     21  H           0     133.701 134.212 142.733  0.00  0.00     0.180 HD
ENDROOT
BRANCH   6  22
ATOM     22  C           0     138.417 132.845 144.935  0.00  0.00     0.206 C 
BRANCH  22  23
ATOM     23  O           0     138.931 132.414 146.222  0.00  0.00    -0.320 OA
BRANCH  23  24
ATOM     24  C           0     140.240 132.533 146.496  0.00  0.00     0.254 C 
ATOM     25  C           0     140.684 133.140 147.801  0.00  0.00     0.126 C 
ATOM     26  O           0     141.062 132.154 145.695  0.00  0.00    -0.266 OA
ENDBRANCH  23  24
ENDBRANCH  22  23
ENDBRANCH   6  22
BRANCH  18  27
ATOM     27  O           0     135.580 133.192 140.995  0.00  0.00    -0.362 OA
ATOM     28  H           0     135.568 134.147 141.146  0.00  0.00     0.213 HD
ENDBRANCH  18  27
BRANCH  18  29
ATOM     29  O           0     137.378 132.282 142.200  0.00  0.00    -0.362 OA
ATOM     30  H           0     137.515 131.550 142.816  0.00  0.00     0.213 HD
ENDBRANCH  18  29
TORSDOF 5
ENDMDL
MODEL 3
REMARK VINA RESULT:      -6.6      2.815      4.833
REMARK  5 active torsions:
REMARK  status: ('A' for Active; 'I' for Inactive)
REMARK    1  A    between atoms: C_6  and  C_7 
REMARK    2  A    between atoms: C_7  and  O_8 
REMARK    3  A    between atoms: O_8  and  C_9 
REMARK    4  A    between atoms: C_23  and  O_24 
REMARK    5  A    between atoms: C_23  and  O_25 
ROOT
ATOM      1  N           0     139.661 130.577 146.021  0.00  0.00    -0.235 N 
ATOM      2  H           0     140.416 130.728 145.432  0.00  0.00     0.174 HD
ATOM      3  H           0     139.696 129.868 146.682  0.00  0.00     0.174 HD
ATOM      4  C           0     138.602 131.332 145.930  0.00  0.00     0.672 C 
ATOM      5  N           0     138.508 132.360 145.008  0.00  0.00    -0.218 N 
ATOM      6  C           0     137.183 132.733 144.522  0.00  0.00     0.151 C 
ATOM      7  C           0     136.195 132.982 145.646  0.00  0.00     0.180 C 
ATOM      8  N           0     136.465 134.307 146.245  0.00  0.00    -0.216 N 
ATOM      9  C           0     136.308 134.187 147.604  0.00  0.00     0.670 C 
ATOM     10  N           0     136.109 135.193 148.410  0.00  0.00    -0.235 N 
ATOM     11  H           0     136.064 136.096 148.056  0.00  0.00     0.174 HD
ATOM     12  H           0     136.006 135.039 149.361  0.00  0.00     0.174 HD
ATOM     13  C           0     136.330 132.019 146.816  0.00  0.00     0.217 C 
ATOM     14  N           0     136.386 132.878 148.010  0.00  0.00    -0.191 N 
ATOM     15  N           0     137.508 131.155 146.737  0.00  0.00    -0.183 N 
ATOM     16  C           0     137.234 130.037 147.658  0.00  0.00     0.150 C 
ATOM     17  C           0     135.726 129.747 147.471  0.00  0.00     0.093 C 
ATOM     18  C           0     135.128 131.064 146.915  0.00  0.00     0.209 C 
ATOM     19  H           0     139.302 132.821 144.694  0.00  0.00     0.178 HD
ATOM     20  H           0     136.708 135.114 145.764  0.00  0.00     0.178 HD
ATOM     21  H           0     136.462 132.572 148.927  0.00  0.00     0.180 HD
ENDROOT
BRANCH   6  22
ATOM     22  C           0     136.646 131.607 143.636  0.00  0.00     0.206 C 
BRANCH  22  23
ATOM     23  O           0     135.931 132.176 142.509  0.00  0.00    -0.320 OA
BRANCH  23  24
ATOM     24  C           0     134.590 132.135 142.474  0.00  0.00     0.254 C 
ATOM     25  C           0     133.802 133.404 142.274  0.00  0.00     0.126 C 
ATOM     26  O           0     134.015 131.081 142.604  0.00  0.00    -0.266 OA
ENDBRANCH  23  24
ENDBRANCH  22  23
ENDBRANCH   6  22
BRANCH  18  27
ATOM     27  O           0     134.145 131.583 147.811  0.00  0.00    -0.362 OA
ATOM     28  H           0     133.640 132.245 147.320  0.00  0.00     0.213 HD
ENDBRANCH  18  27
BRANCH  18  29
ATOM     29  O           0     134.560 130.846 145.622  0.00  0.00    -0.362 OA
ATOM     30  H           0     133.601 130.924 145.722  0.00  0.00     0.213 HD
ENDBRANCH  18  29
TORSDOF 5
ENDMDL
MODEL 4
REMARK VINA RESULT:      -6.6      2.424      5.115
REMARK  5 active torsions:
REMARK  status: ('A' for Active; 'I' for Inactive)
REMARK    1  A    between atoms: C_6  and  C_7 
REMARK    2  A    between atoms: C_7  and  O_8 
REMARK    3  A    between atoms: O_8  and  C_9 
REMARK    4  A    between atoms: C_23  and  O_24 
REMARK    5  A    between atoms: C_23  and  O_25 
ROOT
ATOM      1  N           0     136.008 134.636 146.674  0.00  0.00    -0.235 N 
ATOM      2  H           0     136.443 135.469 146.915  0.00  0.00     0.174 HD
ATOM      3  H           0     135.568 134.105 147.356  0.00  0.00     0.174 HD
ATOM      4  C           0     136.008 134.235 145.434  0.00  0.00     0.672 C 
ATOM      5  N           0     136.616 134.962 144.425  0.00  0.00    -0.218 N 
ATOM      6  C           0     137.128 134.239 143.265  0.00  0.00     0.151 C 
ATOM      7  C           0     136.098 133.308 142.654  0.00  0.00     0.180 C 
ATOM      8  N           0     135.131 134.102 141.866  0.00  0.00    -0.216 N 
ATOM      9  C           0     133.884 133.567 142.078  0.00  0.00     0.670 C 
ATOM     10  N           0     132.861 133.761 141.293  0.00  0.00    -0.235 N 
ATOM     11  H           0     132.955 134.313 140.501  0.00  0.00     0.174 HD
ATOM     12  H           0     132.007 133.353 141.501  0.00  0.00     0.174 HD
ATOM     13  C           0     135.230 132.587 143.674  0.00  0.00     0.217 C 
ATOM     14  N           0     133.848 132.803 143.218  0.00  0.00    -0.191 N 
ATOM     15  N           0     135.410 133.065 145.046  0.00  0.00    -0.183 N 
ATOM     16  C           0     134.869 131.996 145.905  0.00  0.00     0.150 C 
ATOM     17  C           0     135.298 130.686 145.203  0.00  0.00     0.093 C 
ATOM     18  C           0     135.535 131.080 143.723  0.00  0.00     0.209 C 
ATOM     19  H           0     136.698 135.927 144.487  0.00  0.00     0.178 HD
ATOM     20  H           0     135.340 134.863 141.301  0.00  0.00     0.178 HD
ATOM     21  H           0     133.048 132.462 143.647  0.00  0.00     0.180 HD
ENDROOT
BRANCH   6  22
ATOM     22  C           0     138.343 133.416 143.693  0.00  0.00     0.206 C 
BRANCH  22  23
ATOM     23  O           0     138.274 133.155 145.119  0.00  0.00    -0.320 OA
BRANCH  23  24
ATOM     24  C           0     139.007 132.168 145.658  0.00  0.00     0.254 C 
ATOM     25  C           0     140.422 132.436 146.101  0.00  0.00     0.126 C 
ATOM     26  O           0     138.532 131.065 145.786  0.00  0.00    -0.266 OA
ENDBRANCH  23  24
ENDBRANCH  22  23
ENDBRANCH   6  22
BRANCH  18  27
ATOM     27  O           0     134.647 130.359 142.868  0.00  0.00    -0.362 OA
ATOM     28  H           0     134.932 130.532 141.960  0.00  0.00     0.213 HD
ENDBRANCH  18  27
BRANCH  18  29
ATOM     29  O           0     136.893 130.835 143.354  0.00  0.00    -0.362 OA
ATOM     30  H           0     137.098 129.930 143.626  0.00  0.00     0.213 HD
ENDBRANCH  18  29
TORSDOF 5
ENDMDL
MODEL 5
REMARK VINA RESULT:      -6.2      2.788      4.566
REMARK  5 active torsions:
REMARK  status: ('A' for Active; 'I' for Inactive)
REMARK    1  A    between atoms: C_6  and  C_7 
REMARK    2  A    between atoms: C_7  and  O_8 
REMARK    3  A    between atoms: O_8  and  C_9 
REMARK    4  A    between atoms: C_23  and  O_24 
REMARK    5  A    between atoms: C_23  and  O_25 
ROOT
ATOM      1  N           0     134.929 129.730 145.601  0.00  0.00    -0.235 N 
ATOM      2  H           0     134.588 129.272 144.817  0.00  0.00     0.174 HD
ATOM      3  H           0     134.679 129.425 146.487  0.00  0.00     0.174 HD
ATOM      4  C           0     135.729 130.750 145.464  0.00  0.00     0.672 C 
ATOM      5  N           0     136.121 131.217 144.222  0.00  0.00    -0.218 N 
ATOM      6  C           0     136.455 132.632 144.090  0.00  0.00     0.151 C 
ATOM      7  C           0     137.454 133.097 145.132  0.00  0.00     0.180 C 
ATOM      8  N           0     138.805 132.633 144.751  0.00  0.00    -0.216 N 
ATOM      9  C           0     139.447 132.236 145.899  0.00  0.00     0.670 C 
ATOM     10  N           0     140.740 132.115 146.011  0.00  0.00    -0.235 N 
ATOM     11  H           0     141.313 132.310 145.252  0.00  0.00     0.174 HD
ATOM     12  H           0     141.130 131.831 146.852  0.00  0.00     0.174 HD
ATOM     13  C           0     137.238 132.495 146.512  0.00  0.00     0.217 C 
ATOM     14  N           0     138.558 131.983 146.914  0.00  0.00    -0.191 N 
ATOM     15  N           0     136.233 131.431 146.541  0.00  0.00    -0.183 N 
ATOM     16  C           0     135.845 131.301 147.957  0.00  0.00     0.150 C 
ATOM     17  C           0     135.826 132.755 148.485  0.00  0.00     0.093 C 
ATOM     18  C           0     136.752 133.544 147.526  0.00  0.00     0.209 C 
ATOM     19  H           0     136.172 130.619 143.459  0.00  0.00     0.178 HD
ATOM     20  H           0     139.173 132.612 143.853  0.00  0.00     0.178 HD
ATOM     21  H           0     138.766 131.546 147.754  0.00  0.00     0.180 HD
ENDROOT
BRANCH   6  22
ATOM     22  C           0     135.176 133.458 144.232  0.00  0.00     0.206 C 
BRANCH  22  23
ATOM     23  O           0     134.595 133.681 142.920  0.00  0.00    -0.320 OA
BRANCH  23  24
ATOM     24  C           0     134.258 134.922 142.538  0.00  0.00     0.254 C 
ATOM     25  C           0     134.780 136.114 143.297  0.00  0.00     0.126 C 
ATOM     26  O           0     133.533 135.084 141.584  0.00  0.00    -0.266 OA
ENDBRANCH  23  24
ENDBRANCH  22  23
ENDBRANCH   6  22
BRANCH  18  27
ATOM     27  O           0     137.855 134.099 148.243  0.00  0.00    -0.362 OA
ATOM     28  H           0     138.296 133.365 148.691  0.00  0.00     0.213 HD
ENDBRANCH  18  27
BRANCH  18  29
ATOM     29  O           0     136.019 134.575 146.861  0.00  0.00    -0.362 OA
ATOM     30  H           0     135.096 134.285 146.830  0.00  0.00     0.213 HD
ENDBRANCH  18  29
TORSDOF 5
ENDMDL
MODEL 6
REMARK VINA RESULT:      -6.2      4.467      6.927
REMARK  5 active torsions:
REMARK  status: ('A' for Active; 'I' for Inactive)
REMARK    1  A    between atoms: C_6  and  C_7 
REMARK    2  A    between atoms: C_7  and  O_8 
REMARK    3  A    between atoms: O_8  and  C_9 
REMARK    4  A    between atoms: C_23  and  O_24 
REMARK    5  A    between atoms: C_23  and  O_25 
ROOT
ATOM      1  N           0     134.307 131.996 149.403  0.00  0.00    -0.235 N 
ATOM      2  H           0     133.874 131.692 150.216  0.00  0.00     0.174 HD
ATOM      3  H           0     134.230 132.923 149.131  0.00  0.00     0.174 HD
ATOM      4  C           0     134.998 131.159 148.681  0.00  0.00     0.672 C 
ATOM      5  N           0     135.142 129.828 149.031  0.00  0.00    -0.218 N 
ATOM      6  C           0     135.348 128.852 147.966  0.00  0.00     0.151 C 
ATOM      7  C           0     136.471 129.241 147.024  0.00  0.00     0.180 C 
ATOM      8  N           0     137.770 128.963 147.674  0.00  0.00    -0.216 N 
ATOM      9  C           0     138.620 129.995 147.360  0.00  0.00     0.670 C 
ATOM     10  N           0     139.919 129.925 147.443  0.00  0.00    -0.235 N 
ATOM     11  H           0     140.342 129.105 147.744  0.00  0.00     0.174 HD
ATOM     12  H           0     140.462 130.691 147.205  0.00  0.00     0.174 HD
ATOM     13  C           0     136.531 130.728 146.710  0.00  0.00     0.217 C 
ATOM     14  N           0     137.933 131.110 146.946  0.00  0.00    -0.191 N 
ATOM     15  N           0     135.624 131.540 147.523  0.00  0.00    -0.183 N 
ATOM     16  C           0     135.488 132.816 146.797  0.00  0.00     0.150 C 
ATOM     17  C           0     135.453 132.407 145.305  0.00  0.00     0.093 C 
ATOM     18  C           0     136.147 131.023 145.250  0.00  0.00     0.209 C 
ATOM     19  H           0     135.108 129.552 149.961  0.00  0.00     0.178 HD
ATOM     20  H           0     137.982 128.192 148.223  0.00  0.00     0.178 HD
ATOM     21  H           0     138.309 131.996 146.826  0.00  0.00     0.180 HD
ENDROOT
BRANCH   6  22
ATOM     22  C           0     134.055 128.718 147.161  0.00  0.00     0.206 C 
BRANCH  22  23
ATOM     23  O           0     133.244 127.651 147.719  0.00  0.00    -0.320 OA
BRANCH  23  24
ATOM     24  C           0     131.996 127.906 148.140  0.00  0.00     0.254 C 
ATOM     25  C           0     131.772 128.690 149.407  0.00  0.00     0.126 C 
ATOM     26  O           0     131.050 127.505 147.503  0.00  0.00    -0.266 OA
ENDBRANCH  23  24
ENDBRANCH  22  23
ENDBRANCH   6  22
BRANCH  18  27
ATOM     27  O           0     137.312 131.083 144.426  0.00  0.00    -0.362 OA
ATOM     28  H           0     138.060 130.820 144.979  0.00  0.00     0.213 HD
ENDBRANCH  18  27
BRANCH  18  29
ATOM     29  O           0     135.242 130.030 144.765  0.00  0.00    -0.362 OA
ATOM     30  H           0     135.765 129.405 144.246  0.00  0.00     0.213 HD
ENDBRANCH  18  29
TORSDOF 5
ENDMDL
MODEL 7
REMARK VINA RESULT:      -6.2      3.988      6.317
REMARK  5 active torsions:
REMARK  status: ('A' for Active; 'I' for Inactive)
REMARK    1  A    between atoms: C_6  and  C_7 
REMARK    2  A    between atoms: C_7  and  O_8 
REMARK    3  A    between atoms: O_8  and  C_9 
REMARK    4  A    between atoms: C_23  and  O_24 
REMARK    5  A    between atoms: C_23  and  O_25 
ROOT
ATOM      1  N           0     136.300 134.556 147.678  0.00  0.00    -0.235 N 
ATOM      2  H           0     136.835 135.363 147.623  0.00  0.00     0.174 HD
ATOM      3  H           0     135.673 134.438 148.409  0.00  0.00     0.174 HD
ATOM      4  C           0     136.418 133.632 146.766  0.00  0.00     0.672 C 
ATOM      5  N           0     137.294 133.757 145.701  0.00  0.00    -0.218 N 
ATOM      6  C           0     137.840 132.539 145.109  0.00  0.00     0.151 C 
ATOM      7  C           0     136.766 131.528 144.754  0.00  0.00     0.180 C 
ATOM      8  N           0     136.090 131.955 143.510  0.00  0.00    -0.216 N 
ATOM      9  C           0     134.749 131.692 143.656  0.00  0.00     0.670 C 
ATOM     10  N           0     133.910 131.595 142.664  0.00  0.00    -0.235 N 
ATOM     11  H           0     134.221 131.711 141.752  0.00  0.00     0.174 HD
ATOM     12  H           0     132.975 131.406 142.836  0.00  0.00     0.174 HD
ATOM     13  C           0     135.638 131.437 145.770  0.00  0.00     0.217 C 
ATOM     14  N           0     134.403 131.543 144.976  0.00  0.00    -0.191 N 
ATOM     15  N           0     135.688 132.473 146.802  0.00  0.00    -0.183 N 
ATOM     16  C           0     134.840 131.972 147.898  0.00  0.00     0.150 C 
ATOM     17  C           0     135.130 130.453 147.944  0.00  0.00     0.093 C 
ATOM     18  C           0     135.657 130.100 146.531  0.00  0.00     0.209 C 
ATOM     19  H           0     137.537 134.631 145.356  0.00  0.00     0.178 HD
ATOM     20  H           0     136.515 132.350 142.732  0.00  0.00     0.178 HD
ATOM     21  H           0     133.499 131.511 145.326  0.00  0.00     0.180 HD
ENDROOT
BRANCH   6  22
ATOM     22  C           0     138.809 131.898 146.104  0.00  0.00     0.206 C 
BRANCH  22  23
ATOM     23  O           0     139.944 132.779 146.310  0.00  0.00    -0.320 OA
BRANCH  23  24
ATOM     24  C           0     140.706 132.647 147.407  0.00  0.00     0.254 C 
ATOM     25  C           0     141.125 131.277 147.875  0.00  0.00     0.126 C 
ATOM     26  O           0     141.054 133.628 148.022  0.00  0.00    -0.266 OA
ENDBRANCH  23  24
ENDBRANCH  22  23
ENDBRANCH   6  22
BRANCH  18  27
ATOM     27  O           0     134.797 129.150 145.901  0.00  0.00    -0.362 OA
ATOM     28  H           0     134.640 128.445 146.543  0.00  0.00     0.213 HD
ENDBRANCH  18  27
BRANCH  18  29
ATOM     29  O           0     136.991 129.593 146.609  0.00  0.00    -0.362 OA
ATOM     30  H           0     136.931 128.633 146.508  0.00  0.00     0.213 HD
ENDBRANCH  18  29
TORSDOF 5
ENDMDL
MODEL 8
REMARK VINA RESULT:      -6.1      2.664      3.889
REMARK  5 active torsions:
REMARK  status: ('A' for Active; 'I' for Inactive)
REMARK    1  A    between atoms: C_6  and  C_7 
REMARK    2  A    between atoms: C_7  and  O_8 
REMARK    3  A    between atoms: O_8  and  C_9 
REMARK    4  A    between atoms: C_23  and  O_24 
REMARK    5  A    between atoms: C_23  and  O_25 
ROOT
ATOM      1  N           0     136.286 134.821 148.038  0.00  0.00    -0.235 N 
ATOM      2  H           0     135.489 135.369 147.973  0.00  0.00     0.174 HD
ATOM      3  H           0     136.957 135.018 148.711  0.00  0.00     0.174 HD
ATOM      4  C           0     136.453 133.815 147.227  0.00  0.00     0.672 C 
ATOM      5  N           0     135.522 133.490 146.255  0.00  0.00    -0.218 N 
ATOM      6  C           0     135.991 132.828 145.042  0.00  0.00     0.151 C 
ATOM      7  C           0     136.850 131.612 145.332  0.00  0.00     0.180 C 
ATOM      8  N           0     135.980 130.487 145.735  0.00  0.00    -0.216 N 
ATOM      9  C           0     136.612 129.818 146.754  0.00  0.00     0.670 C 
ATOM     10  N           0     136.334 128.595 147.110  0.00  0.00    -0.235 N 
ATOM     11  H           0     135.642 128.099 146.644  0.00  0.00     0.174 HD
ATOM     12  H           0     136.819 128.180 147.839  0.00  0.00     0.174 HD
ATOM     13  C           0     137.792 131.785 146.514  0.00  0.00     0.217 C 
ATOM     14  N           0     137.572 130.596 147.352  0.00  0.00    -0.191 N 
ATOM     15  N           0     137.564 133.013 147.277  0.00  0.00    -0.183 N 
ATOM     16  C           0     138.799 133.226 148.052  0.00  0.00     0.150 C 
ATOM     17  C           0     139.934 132.805 147.088  0.00  0.00     0.093 C 
ATOM     18  C           0     139.264 131.847 146.071  0.00  0.00     0.209 C 
ATOM     19  H           0     134.581 133.695 146.379  0.00  0.00     0.178 HD
ATOM     20  H           0     135.118 130.263 145.349  0.00  0.00     0.178 HD
ATOM     21  H           0     138.029 130.394 148.184  0.00  0.00     0.180 HD
ENDROOT
BRANCH   6  22
ATOM     22  C           0     136.812 133.825 144.222  0.00  0.00     0.206 C 
BRANCH  22  23
ATOM     23  O           0     136.148 134.072 142.955  0.00  0.00    -0.320 OA
BRANCH  23  24
ATOM     24  C           0     134.941 134.658 142.932  0.00  0.00     0.254 C 
ATOM     25  C           0     134.793 136.098 143.348  0.00  0.00     0.126 C 
ATOM     26  O           0     133.971 134.029 142.578  0.00  0.00    -0.266 OA
ENDBRANCH  23  24
ENDBRANCH  22  23
ENDBRANCH   6  22
BRANCH  18  27
ATOM     27  O           0     139.864 130.553 146.135  0.00  0.00    -0.362 OA
ATOM     28  H           0     139.145 129.908 146.077  0.00  0.00     0.213 HD
ENDBRANCH  18  27
BRANCH  18  29
ATOM     29  O           0     139.362 132.379 144.748  0.00  0.00    -0.362 OA
ATOM     30  H           0     140.080 133.026 144.759  0.00  0.00     0.213 HD
ENDBRANCH  18  29
TORSDOF 5
ENDMDL
MODEL 9
REMARK VINA RESULT:      -6.1      8.439     11.009
REMARK  5 active torsions:
REMARK  status: ('A' for Active; 'I' for Inactive)
REMARK    1  A    between atoms: C_6  and  C_7 
REMARK    2  A    between atoms: C_7  and  O_8 
REMARK    3  A    between atoms: O_8  and  C_9 
REMARK    4  A    between atoms: C_23  and  O_24 
REMARK    5  A    between atoms: C_23  and  O_25 
ROOT
ATOM      1  N           0     128.724 133.605 131.510  0.00  0.00    -0.235 N 
ATOM      2  H           0     127.923 133.226 131.116  0.00  0.00     0.174 HD
ATOM      3  H           0     128.996 134.508 131.282  0.00  0.00     0.174 HD
ATOM      4  C           0     129.431 132.905 132.352  0.00  0.00     0.672 C 
ATOM      5  N           0     129.080 131.616 132.714  0.00  0.00    -0.218 N 
ATOM      6  C           0     130.142 130.696 133.110  0.00  0.00     0.151 C 
ATOM      7  C           0     131.055 131.279 134.172  0.00  0.00     0.180 C 
ATOM      8  N           0     130.373 131.224 135.483  0.00  0.00    -0.216 N 
ATOM      9  C           0     130.664 132.388 136.151  0.00  0.00     0.670 C 
ATOM     10  N           0     130.548 132.542 137.440  0.00  0.00    -0.235 N 
ATOM     11  H           0     130.239 131.805 137.990  0.00  0.00     0.174 HD
ATOM     12  H           0     130.771 133.391 137.849  0.00  0.00     0.174 HD
ATOM     13  C           0     131.363 132.756 133.984  0.00  0.00     0.217 C 
ATOM     14  N           0     131.092 133.371 135.293  0.00  0.00    -0.191 N 
ATOM     15  N           0     130.572 133.395 132.931  0.00  0.00    -0.183 N 
ATOM     16  C           0     131.298 134.633 132.595  0.00  0.00     0.150 C 
ATOM     17  C           0     132.791 134.234 132.667  0.00  0.00     0.093 C 
ATOM     18  C           0     132.832 132.990 133.590  0.00  0.00     0.209 C 
ATOM     19  H           0     128.152 131.332 132.706  0.00  0.00     0.178 HD
ATOM     20  H           0     129.821 130.497 135.812  0.00  0.00     0.178 HD
ATOM     21  H           0     131.200 134.309 135.513  0.00  0.00     0.180 HD
ENDROOT
BRANCH   6  22
ATOM     22  C           0     130.979 130.348 131.879  0.00  0.00     0.206 C 
BRANCH  22  23
ATOM     23  O           0     131.908 129.283 132.210  0.00  0.00    -0.320 OA
BRANCH  23  24
ATOM     24  C           0     131.467 128.022 132.338  0.00  0.00     0.254 C 
ATOM     25  C           0     130.638 127.399 131.245  0.00  0.00     0.126 C 
ATOM     26  O           0     131.734 127.386 133.330  0.00  0.00    -0.266 OA
ENDBRANCH  23  24
ENDBRANCH  22  23
ENDBRANCH   6  22
BRANCH  18  27
ATOM     27  O           0     133.627 133.254 134.747  0.00  0.00    -0.362 OA
ATOM     28  H           0     133.512 134.190 134.958  0.00  0.00     0.213 HD
ENDBRANCH  18  27
BRANCH  18  29
ATOM     29  O           0     133.342 131.860 132.880  0.00  0.00    -0.362 OA
ATOM     30  H           0     132.671 131.166 132.942  0.00  0.00     0.213 HD
ENDBRANCH  18  29
TORSDOF 5
ENDMDL
