# created with PyMOL 2.3.4
@<TRIPOS>MOLECULE
ligand_out_0001
80 85 1                 
SMALL
USER_CHARGES
@<TRIPOS>ATOM
1	   N	135.849	133.975	143.213	N.pl3	1	UNK0	-0.281	
2	   N	138.779	135.331	145.290	N.pl3	1	UNK0	-0.359	
3	   N	138.889	134.590	147.773	N.pl3	1	UNK0	-0.335	
4	   N	134.454	132.369	149.296	N.3	1	UNK0	-0.218	
5	   N	133.348	130.927	150.790	N.3	1	UNK0	-0.235	
6	   N	134.778	130.064	149.150	N.3	1	UNK0	-0.183	
7	   N	134.832	129.682	146.762	N.3	1	UNK0	-0.191	
8	   N	135.280	131.874	146.368	N.3	1	UNK0	-0.216	
9	   N	134.429	130.553	144.600	N.3	1	UNK0	-0.235	
10	   N	131.109	137.438	133.749	N.pl3	1	UNK0	-0.360	
11	   N	129.769	135.791	131.590	N.pl3	1	UNK0	-0.355	
12	   N	134.150	129.162	132.116	N.3	1	UNK0	-0.382	
13	   C	135.183	135.143	143.242	C.2	1	UNK0	0.251	
14	   C	133.981	135.017	142.388	C.3	1	UNK0	0.087	
15	   C	133.990	133.771	141.888	C.3	1	UNK0	0.015	
16	   C	135.200	133.105	142.419	C.2	1	UNK0	0.256	
17	   C	137.095	133.696	143.932	C.3	1	UNK0	0.145	
18	   C	138.279	134.237	143.128	C.3	1	UNK0	0.123	
19	   C	139.065	135.200	143.979	C.2	1	UNK0	0.219	
20	   C	139.544	136.267	146.118	C.3	1	UNK0	0.142	
21	   C	139.250	135.999	147.595	C.3	1	UNK0	0.144	
22	   C	138.455	134.152	148.970	C.2	1	UNK0	0.360	
23	   C	136.845	132.504	149.727	C.2	1	UNK0	0.208	
24	   C	135.752	132.576	148.659	C.3	1	UNK0	0.151	
25	   C	134.160	131.108	149.785	C.3	1	UNK0	0.672	
26	   C	135.593	130.137	147.936	C.3	1	UNK0	0.217	
27	   C	134.821	128.650	149.563	C.3	1	UNK0	0.150	
28	   C	136.049	131.545	147.587	C.3	1	UNK0	0.180	
29	   C	136.783	129.193	148.185	C.3	1	UNK0	0.209	
30	   C	134.823	130.695	145.835	C.3	1	UNK0	0.670	
31	   C	136.273	128.206	149.267	C.3	1	UNK0	0.093	
32	   C	132.967	133.167	140.959	C.3	1	UNK0	0.044	
33	   C	132.522	134.218	139.940	C.3	1	UNK0	0.005	
34	   C	133.719	134.634	139.081	C.3	1	UNK0	0.000	
35	   C	133.221	135.144	137.727	C.3	1	UNK0	0.000	
36	   C	132.202	134.159	137.153	C.3	1	UNK0	0.000	
37	   C	131.829	134.580	135.731	C.3	1	UNK0	0.009	
38	   C	132.112	136.073	135.551	C.3	1	UNK0	0.103	
39	   C	131.949	136.445	134.099	C.2	1	UNK0	0.217	
40	   C	130.950	137.798	132.338	C.3	1	UNK0	0.142	
41	   C	129.630	137.232	131.812	C.3	1	UNK0	0.142	
42	   C	129.207	134.919	132.451	C.2	1	UNK0	0.257	
43	   C	129.282	133.468	132.185	C.3	1	UNK0	0.104	
44	   C	128.160	132.781	131.504	C.2	1	UNK0	0.298	
45	   C	129.106	130.670	132.118	C.2	1	UNK0	0.200	
46	   C	130.502	131.289	132.305	C.3	1	UNK0	0.036	
47	   C	130.362	132.771	132.567	C.3	1	UNK0	0.016	
48	   C	131.102	130.695	133.418	C.3	1	UNK0	-0.005	
49	   C	131.226	131.112	131.123	C.3	1	UNK0	-0.005	
50	   C	132.252	130.017	133.396	C.3	1	UNK0	0.026	
51	   C	132.952	129.861	132.178	C.3	1	UNK0	0.029	
52	   C	132.380	130.446	131.027	C.3	1	UNK0	0.026	
53	   C	135.247	129.504	133.024	C.3	1	UNK0	0.118	
54	   C	135.855	130.845	132.607	C.3	1	UNK0	0.026	
55	   C	134.318	128.080	131.141	C.3	1	UNK0	0.118	
56	   C	134.622	126.774	131.876	C.3	1	UNK0	0.026	
57	   O	135.545	131.965	142.183	O.2	1	UNK0	-0.267	
58	   O	135.510	136.133	143.864	O.2	1	UNK0	-0.268	
59	   O	139.955	135.859	143.485	O.2	1	UNK0	-0.274	
60	   O	138.363	134.925	149.904	O.co2	1	UNK0	-0.239	
61	   O	138.123	132.856	149.134	O.2	1	UNK0	-0.302	
62	   O	137.125	128.489	146.991	O.2	1	UNK0	-0.362	
63	   O	137.907	129.928	148.673	O.2	1	UNK0	-0.362	
64	   O	132.574	135.848	133.248	O.2	1	UNK0	-0.274	
65	   O	128.641	135.326	133.446	O.2	1	UNK0	-0.267	
66	   O	128.363	131.481	131.160	O.2	1	UNK0	-0.316	
67	   O	127.116	133.351	131.258	O.co2	1	UNK0	-0.259	
68	   H	138.067	134.804	145.685	 H	1	UNK0	0.162	
69	   H	138.962	133.973	147.028	 H	1	UNK0	0.164	
70	   H	133.817	133.095	149.373	 H	1	UNK0	0.178	
71	   H	132.930	131.689	151.219	 H	1	UNK0	0.174	
72	   H	133.160	130.028	151.105	 H	1	UNK0	0.174	
73	   H	135.125	132.764	146.011	 H	1	UNK0	0.178	
74	   H	134.448	131.312	143.996	 H	1	UNK0	0.174	
75	   H	134.117	129.690	144.286	 H	1	UNK0	0.174	
76	   H	134.410	128.814	146.660	 H	1	UNK0	0.180	
77	   H	136.469	128.734	146.324	 H	1	UNK0	0.213	
78	   H	138.698	129.481	148.342	 H	1	UNK0	0.213	
79	   H	130.610	137.915	134.429	 H	1	UNK0	0.162	
80	   H	130.266	135.464	130.823	 H	1	UNK0	0.162	
@<TRIPOS>BOND
1 1 13 1
2 1 16 1
3 1 17 1
4 2 20 1
5 2 68 1
6 3 22 1
7 3 69 1
8 4 25 1
9 4 70 1
10 5 71 1
11 5 72 1
12 6 26 1
13 6 27 1
14 7 30 1
15 7 76 1
16 8 30 1
17 8 73 1
18 9 74 1
19 9 75 1
20 10 40 1
21 10 79 1
22 11 42 1
23 11 80 1
24 12 53 1
25 12 55 1
26 13 14 1
27 13 58 2
28 14 15 1
29 15 16 1
30 15 32 1
31 16 57 2
32 17 18 1
33 18 19 1
34 2 19 1
35 19 59 2
36 20 21 1
37 3 21 1
38 22 60 2
39 22 61 2
40 23 24 1
41 4 24 1
42 24 28 1
43 5 25 1
44 6 25 1
45 7 26 1
46 26 28 1
47 26 29 1
48 27 31 1
49 8 28 1
50 29 31 1
51 29 62 2
52 29 63 2
53 9 30 1
54 32 33 1
55 33 34 1
56 34 35 1
57 35 36 1
58 36 37 1
59 37 38 1
60 38 39 1
61 10 39 1
62 39 64 2
63 40 41 1
64 11 41 1
65 42 43 1
66 42 65 2
67 43 44 1
68 43 47 1
69 44 66 2
70 44 67 2
71 45 46 1
72 46 47 1
73 46 48 1
74 46 49 1
75 48 50 1
76 49 52 1
77 50 51 1
78 12 51 1
79 51 52 1
80 53 54 1
81 55 56 1
82 23 61 2
83 62 77 1
84 63 78 1
85 45 66 2
@<TRIPOS>SUBSTRUCTURE
1	UNK0	1	GROUP	1 ****	UNK
