# created with PyMOL 2.3.4
@<TRIPOS>MOLECULE
ligand_out_0001
32 34 1                 
SMALL
USER_CHARGES
@<TRIPOS>ATOM
1	   N	135.499	132.604	147.007	N.3	1	UNK0	-0.235	
2	   N	136.812	134.331	146.097	N.3	1	UNK0	-0.218	
3	   N	136.254	136.113	143.646	N.3	1	UNK0	-0.216	
4	   N	134.300	136.923	142.587	N.3	1	UNK0	-0.235	
5	   N	134.602	134.640	143.132	N.3	1	UNK0	-0.191	
6	   N	135.475	133.023	144.704	N.3	1	UNK0	-0.183	
7	   N	139.879	130.951	146.930	N.pl3	1	UNK0	-0.337	
8	   C	135.908	133.290	145.976	C.3	1	UNK0	0.672	
9	   C	137.678	134.629	144.961	C.3	1	UNK0	0.151	
10	   C	136.910	134.787	143.664	C.3	1	UNK0	0.180	
11	   C	135.008	135.951	143.091	C.3	1	UNK0	0.670	
12	   C	135.758	133.808	143.501	C.3	1	UNK0	0.217	
13	   C	134.684	131.870	144.240	C.3	1	UNK0	0.150	
14	   C	135.324	131.486	142.884	C.3	1	UNK0	0.093	
15	   C	136.033	132.775	142.396	C.3	1	UNK0	0.209	
16	   C	138.689	133.491	144.798	C.2	1	UNK0	0.208	
17	   C	140.054	132.088	146.227	C.2	1	UNK0	0.362	
18	   C	140.981	129.994	147.063	C.3	1	UNK0	0.154	
19	   C	138.588	130.673	147.563	C.3	1	UNK0	0.154	
20	   O	139.041	132.967	146.105	O.2	1	UNK0	-0.302	
21	   O	141.125	132.318	145.703	O.co2	1	UNK0	-0.238	
22	   O	135.478	133.209	141.152	O.2	1	UNK0	-0.362	
23	   O	137.438	132.551	142.264	O.2	1	UNK0	-0.362	
24	   H	135.830	132.817	147.894	 H	1	UNK0	0.174	
25	   H	134.861	131.883	146.887	 H	1	UNK0	0.174	
26	   H	134.647	137.828	142.590	 H	1	UNK0	0.174	
27	   H	133.425	136.739	142.210	 H	1	UNK0	0.174	
28	   H	136.868	134.850	146.915	 H	1	UNK0	0.178	
29	   H	136.634	136.944	143.968	 H	1	UNK0	0.178	
30	   H	133.705	134.318	142.946	 H	1	UNK0	0.180	
31	   H	135.051	134.061	141.319	 H	1	UNK0	0.213	
32	   H	137.876	133.386	142.476	 H	1	UNK0	0.213	
@<TRIPOS>BOND
1 1 8 1
2 1 24 1
3 1 25 1
4 2 9 1
5 2 28 1
6 3 11 1
7 3 29 1
8 4 26 1
9 4 27 1
10 5 30 1
11 6 13 1
12 7 18 1
13 7 19 1
14 2 8 1
15 6 8 1
16 9 10 1
17 9 16 1
18 3 10 1
19 10 12 1
20 4 11 1
21 5 11 1
22 5 12 1
23 6 12 1
24 12 15 1
25 13 14 1
26 14 15 1
27 15 22 2
28 15 23 2
29 16 20 2
30 7 17 1
31 17 21 2
32 17 20 2
33 22 31 1
34 23 32 1
@<TRIPOS>SUBSTRUCTURE
1	UNK0	1	GROUP	1 ****	UNK
