MODEL 1
REMARK VINA RESULT:      -8.1      0.000      0.000
REMARK  5 active torsions:
REMARK  status: ('A' for Active; 'I' for Inactive)
REMARK    1  A    between atoms: C_6  and  C_7 
REMARK    2  A    between atoms: C_7  and  O_8 
REMARK    3  A    between atoms: O_8  and  C_9 
REMARK       I    between atoms: C_9  and  N_10 
REMARK    4  A    between atoms: C_25  and  O_26 
REMARK    5  A    between atoms: C_25  and  O_27 
ROOT
ATOM      1  N           0     135.499 132.604 147.007  0.00  0.00    -0.235 N 
ATOM      2  H           0     135.830 132.817 147.894  0.00  0.00     0.174 HD
ATOM      3  H           0     134.861 131.883 146.887  0.00  0.00     0.174 HD
ATOM      4  C           0     135.908 133.290 145.976  0.00  0.00     0.672 C 
ATOM      5  N           0     136.812 134.331 146.097  0.00  0.00    -0.218 N 
ATOM      6  C           0     137.678 134.629 144.961  0.00  0.00     0.151 C 
ATOM      7  C           0     136.910 134.787 143.664  0.00  0.00     0.180 C 
ATOM      8  N           0     136.254 136.113 143.646  0.00  0.00    -0.216 N 
ATOM      9  C           0     135.008 135.951 143.091  0.00  0.00     0.670 C 
ATOM     10  N           0     134.300 136.923 142.587  0.00  0.00    -0.235 N 
ATOM     11  H           0     134.647 137.828 142.590  0.00  0.00     0.174 HD
ATOM     12  H           0     133.425 136.739 142.210  0.00  0.00     0.174 HD
ATOM     13  C           0     135.758 133.808 143.501  0.00  0.00     0.217 C 
ATOM     14  N           0     134.602 134.640 143.132  0.00  0.00    -0.191 N 
ATOM     15  N           0     135.475 133.023 144.704  0.00  0.00    -0.183 N 
ATOM     16  C           0     134.684 131.870 144.240  0.00  0.00     0.150 C 
ATOM     17  C           0     135.324 131.486 142.884  0.00  0.00     0.093 C 
ATOM     18  C           0     136.033 132.775 142.396  0.00  0.00     0.209 C 
ATOM     19  H           0     136.868 134.850 146.915  0.00  0.00     0.178 HD
ATOM     20  H           0     136.634 136.944 143.968  0.00  0.00     0.178 HD
ATOM     21  H           0     133.705 134.318 142.946  0.00  0.00     0.180 HD
ENDROOT
BRANCH   6  22
ATOM     22  C           0     138.689 133.491 144.798  0.00  0.00     0.208 C 
BRANCH  22  23
ATOM     23  O           0     139.041 132.967 146.105  0.00  0.00    -0.302 OA
BRANCH  23  24
ATOM     24  C           0     140.054 132.088 146.227  0.00  0.00     0.362 C 
ATOM     25  N           0     139.879 130.951 146.930  0.00  0.00    -0.337 N 
ATOM     26  C           0     140.981 129.994 147.063  0.00  0.00     0.154 C 
ATOM     27  C           0     138.588 130.673 147.563  0.00  0.00     0.154 C 
ATOM     28  O           0     141.125 132.318 145.703  0.00  0.00    -0.238 OA
ENDBRANCH  23  24
ENDBRANCH  22  23
ENDBRANCH   6  22
BRANCH  18  29
ATOM     29  O           0     135.478 133.209 141.152  0.00  0.00    -0.362 OA
ATOM     30  H           0     135.051 134.061 141.319  0.00  0.00     0.213 HD
ENDBRANCH  18  29
BRANCH  18  31
ATOM     31  O           0     137.438 132.551 142.264  0.00  0.00    -0.362 OA
ATOM     32  H           0     137.876 133.386 142.476  0.00  0.00     0.213 HD
ENDBRANCH  18  31
TORSDOF 5
ENDMDL
MODEL 2
REMARK VINA RESULT:      -8.0      1.888      2.614
REMARK  5 active torsions:
REMARK  status: ('A' for Active; 'I' for Inactive)
REMARK    1  A    between atoms: C_6  and  C_7 
REMARK    2  A    between atoms: C_7  and  O_8 
REMARK    3  A    between atoms: O_8  and  C_9 
REMARK       I    between atoms: C_9  and  N_10 
REMARK    4  A    between atoms: C_25  and  O_26 
REMARK    5  A    between atoms: C_25  and  O_27 
ROOT
ATOM      1  N           0     135.024 132.376 146.867  0.00  0.00    -0.235 N 
ATOM      2  H           0     135.175 132.623 147.793  0.00  0.00     0.174 HD
ATOM      3  H           0     134.513 131.578 146.655  0.00  0.00     0.174 HD
ATOM      4  C           0     135.500 133.118 145.907  0.00  0.00     0.672 C 
ATOM      5  N           0     136.229 134.268 146.157  0.00  0.00    -0.218 N 
ATOM      6  C           0     137.221 134.685 145.172  0.00  0.00     0.151 C 
ATOM      7  C           0     136.658 134.751 143.766  0.00  0.00     0.180 C 
ATOM      8  N           0     135.847 135.980 143.624  0.00  0.00    -0.216 N 
ATOM      9  C           0     134.739 135.660 142.878  0.00  0.00     0.670 C 
ATOM     10  N           0     134.000 136.535 142.253  0.00  0.00    -0.235 N 
ATOM     11  H           0     134.221 137.477 142.300  0.00  0.00     0.174 HD
ATOM     12  H           0     133.229 136.241 141.742  0.00  0.00     0.174 HD
ATOM     13  C           0     135.686 133.631 143.433  0.00  0.00     0.217 C 
ATOM     14  N           0     134.506 134.307 142.870  0.00  0.00    -0.191 N 
ATOM     15  N           0     135.318 132.807 144.585  0.00  0.00    -0.183 N 
ATOM     16  C           0     134.769 131.563 144.015  0.00  0.00     0.150 C 
ATOM     17  C           0     135.665 131.277 142.785  0.00  0.00     0.093 C 
ATOM     18  C           0     136.269 132.652 142.400  0.00  0.00     0.209 C 
ATOM     19  H           0     136.083 134.783 146.967  0.00  0.00     0.178 HD
ATOM     20  H           0     136.058 136.851 143.992  0.00  0.00     0.178 HD
ATOM     21  H           0     133.701 133.872 142.547  0.00  0.00     0.180 HD
ENDROOT
BRANCH   6  22
ATOM     22  C           0     138.384 133.692 145.190  0.00  0.00     0.208 C 
BRANCH  22  23
ATOM     23  O           0     139.546 134.317 145.796  0.00  0.00    -0.302 OA
BRANCH  23  24
ATOM     24  C           0     139.737 135.644 145.672  0.00  0.00     0.362 C 
ATOM     25  N           0     139.665 136.440 146.759  0.00  0.00    -0.337 N 
ATOM     26  C           0     139.873 137.884 146.625  0.00  0.00     0.154 C 
ATOM     27  C           0     139.378 135.860 148.073  0.00  0.00     0.154 C 
ATOM     28  O           0     139.974 136.125 144.583  0.00  0.00    -0.238 OA
ENDBRANCH  23  24
ENDBRANCH  22  23
ENDBRANCH   6  22
BRANCH  18  29
ATOM     29  O           0     135.870 133.019 141.078  0.00  0.00    -0.362 OA
ATOM     30  H           0     136.621 132.831 140.498  0.00  0.00     0.213 HD
ENDBRANCH  18  29
BRANCH  18  31
ATOM     31  O           0     137.694 132.615 142.500  0.00  0.00    -0.362 OA
ATOM     32  H           0     137.951 133.328 143.099  0.00  0.00     0.213 HD
ENDBRANCH  18  31
TORSDOF 5
ENDMDL
MODEL 3
REMARK VINA RESULT:      -7.6      2.008      5.868
REMARK  5 active torsions:
REMARK  status: ('A' for Active; 'I' for Inactive)
REMARK    1  A    between atoms: C_6  and  C_7 
REMARK    2  A    between atoms: C_7  and  O_8 
REMARK    3  A    between atoms: O_8  and  C_9 
REMARK       I    between atoms: C_9  and  N_10 
REMARK    4  A    between atoms: C_25  and  O_26 
REMARK    5  A    between atoms: C_25  and  O_27 
ROOT
ATOM      1  N           0     136.279 134.913 147.814  0.00  0.00    -0.235 N 
ATOM      2  H           0     135.418 134.865 148.258  0.00  0.00     0.174 HD
ATOM      3  H           0     136.876 135.657 147.991  0.00  0.00     0.174 HD
ATOM      4  C           0     136.637 133.974 146.983  0.00  0.00     0.672 C 
ATOM      5  N           0     135.824 132.890 146.702  0.00  0.00    -0.218 N 
ATOM      6  C           0     135.949 132.252 145.395  0.00  0.00     0.151 C 
ATOM      7  C           0     137.383 131.899 145.051  0.00  0.00     0.180 C 
ATOM      8  N           0     137.778 130.686 145.798  0.00  0.00    -0.216 N 
ATOM      9  C           0     139.074 130.861 146.218  0.00  0.00     0.670 C 
ATOM     10  N           0     139.864 129.888 146.578  0.00  0.00    -0.235 N 
ATOM     11  H           0     139.545 128.973 146.560  0.00  0.00     0.174 HD
ATOM     12  H           0     140.771 130.081 146.864  0.00  0.00     0.174 HD
ATOM     13  C           0     138.401 132.942 145.485  0.00  0.00     0.217 C 
ATOM     14  N           0     139.434 132.185 146.209  0.00  0.00    -0.191 N 
ATOM     15  N           0     137.840 134.000 146.327  0.00  0.00    -0.183 N 
ATOM     16  C           0     138.814 135.105 146.266  0.00  0.00     0.150 C 
ATOM     17  C           0     139.302 135.104 144.797  0.00  0.00     0.093 C 
ATOM     18  C           0     139.029 133.667 144.284  0.00  0.00     0.209 C 
ATOM     19  H           0     135.188 132.561 147.358  0.00  0.00     0.178 HD
ATOM     20  H           0     137.222 129.908 145.962  0.00  0.00     0.178 HD
ATOM     21  H           0     140.236 132.558 146.611  0.00  0.00     0.180 HD
ENDROOT
BRANCH   6  22
ATOM     22  C           0     135.407 133.204 144.327  0.00  0.00     0.208 C 
BRANCH  22  23
ATOM     23  O           0     135.419 132.540 143.036  0.00  0.00    -0.302 OA
BRANCH  23  24
ATOM     24  C           0     134.259 132.188 142.449  0.00  0.00     0.362 C 
ATOM     25  N           0     133.512 133.119 141.821  0.00  0.00    -0.337 N 
ATOM     26  C           0     132.250 132.737 141.183  0.00  0.00     0.154 C 
ATOM     27  C           0     133.962 134.513 141.779  0.00  0.00     0.154 C 
ATOM     28  O           0     133.886 131.033 142.484  0.00  0.00    -0.238 OA
ENDBRANCH  23  24
ENDBRANCH  22  23
ENDBRANCH   6  22
BRANCH  18  29
ATOM     29  O           0     140.252 133.035 143.897  0.00  0.00    -0.362 OA
ATOM     30  H           0     140.229 132.139 144.262  0.00  0.00     0.213 HD
ENDBRANCH  18  29
BRANCH  18  31
ATOM     31  O           0     138.114 133.697 143.186  0.00  0.00    -0.362 OA
ATOM     32  H           0     137.941 134.627 142.992  0.00  0.00     0.213 HD
ENDBRANCH  18  31
TORSDOF 5
ENDMDL
MODEL 4
REMARK VINA RESULT:      -7.5      2.144      2.566
REMARK  5 active torsions:
REMARK  status: ('A' for Active; 'I' for Inactive)
REMARK    1  A    between atoms: C_6  and  C_7 
REMARK    2  A    between atoms: C_7  and  O_8 
REMARK    3  A    between atoms: O_8  and  C_9 
REMARK       I    between atoms: C_9  and  N_10 
REMARK    4  A    between atoms: C_25  and  O_26 
REMARK    5  A    between atoms: C_25  and  O_27 
ROOT
ATOM      1  N           0     136.097 134.659 146.800  0.00  0.00    -0.235 N 
ATOM      2  H           0     136.532 135.493 147.038  0.00  0.00     0.174 HD
ATOM      3  H           0     135.663 134.124 147.484  0.00  0.00     0.174 HD
ATOM      4  C           0     136.091 134.259 145.559  0.00  0.00     0.672 C 
ATOM      5  N           0     136.690 134.988 144.547  0.00  0.00    -0.218 N 
ATOM      6  C           0     137.197 134.268 143.383  0.00  0.00     0.151 C 
ATOM      7  C           0     136.168 133.334 142.778  0.00  0.00     0.180 C 
ATOM      8  N           0     135.193 134.125 141.996  0.00  0.00    -0.216 N 
ATOM      9  C           0     133.950 133.585 142.216  0.00  0.00     0.670 C 
ATOM     10  N           0     132.921 133.776 141.437  0.00  0.00    -0.235 N 
ATOM     11  H           0     133.009 134.329 140.645  0.00  0.00     0.174 HD
ATOM     12  H           0     132.069 133.364 141.650  0.00  0.00     0.174 HD
ATOM     13  C           0     135.310 132.608 143.803  0.00  0.00     0.217 C 
ATOM     14  N           0     133.924 132.820 143.355  0.00  0.00    -0.191 N 
ATOM     15  N           0     135.496 133.086 145.173  0.00  0.00    -0.183 N 
ATOM     16  C           0     134.963 132.015 146.035  0.00  0.00     0.150 C 
ATOM     17  C           0     135.394 130.706 145.330  0.00  0.00     0.093 C 
ATOM     18  C           0     135.619 131.103 143.849  0.00  0.00     0.209 C 
ATOM     19  H           0     136.770 135.953 144.609  0.00  0.00     0.178 HD
ATOM     20  H           0     135.396 134.887 141.431  0.00  0.00     0.178 HD
ATOM     21  H           0     133.127 132.476 143.789  0.00  0.00     0.180 HD
ENDROOT
BRANCH   6  22
ATOM     22  C           0     138.419 133.448 143.803  0.00  0.00     0.208 C 
BRANCH  22  23
ATOM     23  O           0     139.401 134.323 144.416  0.00  0.00    -0.302 OA
BRANCH  23  24
ATOM     24  C           0     140.123 133.892 145.468  0.00  0.00     0.362 C 
ATOM     25  N           0     140.184 134.634 146.593  0.00  0.00    -0.337 N 
ATOM     26  C           0     140.969 134.165 147.738  0.00  0.00     0.154 C 
ATOM     27  C           0     139.467 135.909 146.669  0.00  0.00     0.154 C 
ATOM     28  O           0     140.717 132.835 145.405  0.00  0.00    -0.238 OA
ENDBRANCH  23  24
ENDBRANCH  22  23
ENDBRANCH   6  22
BRANCH  18  29
ATOM     29  O           0     134.729 130.379 142.997  0.00  0.00    -0.362 OA
ATOM     30  H           0     135.174 129.552 142.767  0.00  0.00     0.213 HD
ENDBRANCH  18  29
BRANCH  18  31
ATOM     31  O           0     136.977 130.863 143.472  0.00  0.00    -0.362 OA
ATOM     32  H           0     137.529 131.181 144.197  0.00  0.00     0.213 HD
ENDBRANCH  18  31
TORSDOF 5
ENDMDL
MODEL 5
REMARK VINA RESULT:      -7.3      2.544      4.031
REMARK  5 active torsions:
REMARK  status: ('A' for Active; 'I' for Inactive)
REMARK    1  A    between atoms: C_6  and  C_7 
REMARK    2  A    between atoms: C_7  and  O_8 
REMARK    3  A    between atoms: O_8  and  C_9 
REMARK       I    between atoms: C_9  and  N_10 
REMARK    4  A    between atoms: C_25  and  O_26 
REMARK    5  A    between atoms: C_25  and  O_27 
ROOT
ATOM      1  N           0     138.514 130.498 146.065  0.00  0.00    -0.235 N 
ATOM      2  H           0     138.084 129.825 146.616  0.00  0.00     0.174 HD
ATOM      3  H           0     139.468 130.447 145.895  0.00  0.00     0.174 HD
ATOM      4  C           0     137.811 131.467 145.551  0.00  0.00     0.672 C 
ATOM      5  N           0     136.447 131.579 145.760  0.00  0.00    -0.218 N 
ATOM      6  C           0     135.850 132.910 145.724  0.00  0.00     0.151 C 
ATOM      7  C           0     136.226 133.688 144.478  0.00  0.00     0.180 C 
ATOM      8  N           0     135.433 133.186 143.334  0.00  0.00    -0.216 N 
ATOM      9  C           0     136.261 133.155 142.239  0.00  0.00     0.670 C 
ATOM     10  N           0     135.841 133.119 141.005  0.00  0.00    -0.235 N 
ATOM     11  H           0     134.890 133.113 140.817  0.00  0.00     0.174 HD
ATOM     12  H           0     136.481 133.099 140.276  0.00  0.00     0.174 HD
ATOM     13  C           0     137.668 133.493 144.036  0.00  0.00     0.217 C 
ATOM     14  N           0     137.585 133.166 142.604  0.00  0.00    -0.191 N 
ATOM     15  N           0     138.375 132.444 144.772  0.00  0.00    -0.183 N 
ATOM     16  C           0     139.807 132.704 144.542  0.00  0.00     0.150 C 
ATOM     17  C           0     139.926 134.247 144.573  0.00  0.00     0.093 C 
ATOM     18  C           0     138.506 134.767 144.234  0.00  0.00     0.209 C 
ATOM     19  H           0     135.903 130.793 145.925  0.00  0.00     0.178 HD
ATOM     20  H           0     134.500 132.926 143.355  0.00  0.00     0.178 HD
ATOM     21  H           0     138.337 132.991 142.016  0.00  0.00     0.180 HD
ENDROOT
BRANCH   6  22
ATOM     22  C           0     136.316 133.694 146.952  0.00  0.00     0.208 C 
BRANCH  22  23
ATOM     23  O           0     135.627 133.200 148.131  0.00  0.00    -0.302 OA
BRANCH  23  24
ATOM     24  C           0     136.107 132.129 148.791  0.00  0.00     0.362 C 
ATOM     25  N           0     135.256 131.262 149.377  0.00  0.00    -0.337 N 
ATOM     26  C           0     135.777 130.096 150.095  0.00  0.00     0.154 C 
ATOM     27  C           0     133.811 131.485 149.295  0.00  0.00     0.154 C 
ATOM     28  O           0     137.305 131.943 148.859  0.00  0.00    -0.238 OA
ENDBRANCH  23  24
ENDBRANCH  22  23
ENDBRANCH   6  22
BRANCH  18  29
ATOM     29  O           0     138.533 135.543 143.034  0.00  0.00    -0.362 OA
ATOM     30  H           0     138.390 136.464 143.295  0.00  0.00     0.213 HD
ENDBRANCH  18  29
BRANCH  18  31
ATOM     31  O           0     137.988 135.540 145.318  0.00  0.00    -0.362 OA
ATOM     32  H           0     138.155 136.467 145.105  0.00  0.00     0.213 HD
ENDBRANCH  18  31
TORSDOF 5
ENDMDL
MODEL 6
REMARK VINA RESULT:      -7.1      1.911      5.926
REMARK  5 active torsions:
REMARK  status: ('A' for Active; 'I' for Inactive)
REMARK    1  A    between atoms: C_6  and  C_7 
REMARK    2  A    between atoms: C_7  and  O_8 
REMARK    3  A    between atoms: O_8  and  C_9 
REMARK       I    between atoms: C_9  and  N_10 
REMARK    4  A    between atoms: C_25  and  O_26 
REMARK    5  A    between atoms: C_25  and  O_27 
ROOT
ATOM      1  N           0     136.815 135.677 143.508  0.00  0.00    -0.235 N 
ATOM      2  H           0     136.099 136.064 142.980  0.00  0.00     0.174 HD
ATOM      3  H           0     137.712 136.042 143.451  0.00  0.00     0.174 HD
ATOM      4  C           0     136.570 134.671 144.301  0.00  0.00     0.672 C 
ATOM      5  N           0     135.306 134.120 144.423  0.00  0.00    -0.218 N 
ATOM      6  C           0     135.200 132.709 144.781  0.00  0.00     0.151 C 
ATOM      7  C           0     136.016 132.353 146.007  0.00  0.00     0.180 C 
ATOM      8  N           0     135.307 132.822 147.217  0.00  0.00    -0.216 N 
ATOM      9  C           0     136.249 133.322 148.082  0.00  0.00     0.670 C 
ATOM     10  N           0     136.055 133.486 149.361  0.00  0.00    -0.235 N 
ATOM     11  H           0     135.202 133.249 149.755  0.00  0.00     0.174 HD
ATOM     12  H           0     136.764 133.845 149.916  0.00  0.00     0.174 HD
ATOM     13  C           0     137.364 133.052 146.080  0.00  0.00     0.217 C 
ATOM     14  N           0     137.420 133.628 147.433  0.00  0.00    -0.191 N 
ATOM     15  N           0     137.549 134.088 145.063  0.00  0.00    -0.183 N 
ATOM     16  C           0     139.003 134.317 144.999  0.00  0.00     0.150 C 
ATOM     17  C           0     139.621 132.907 145.161  0.00  0.00     0.093 C 
ATOM     18  C           0     138.532 132.072 145.881  0.00  0.00     0.209 C 
ATOM     19  H           0     134.512 134.658 144.274  0.00  0.00     0.178 HD
ATOM     20  H           0     134.350 132.784 147.371  0.00  0.00     0.178 HD
ATOM     21  H           0     138.159 134.135 147.806  0.00  0.00     0.180 HD
ENDROOT
BRANCH   6  22
ATOM     22  C           0     135.686 131.862 143.603  0.00  0.00     0.208 C 
BRANCH  22  23
ATOM     23  O           0     135.183 132.425 142.362  0.00  0.00    -0.302 OA
BRANCH  23  24
ATOM     24  C           0     133.923 132.163 141.967  0.00  0.00     0.362 C 
ATOM     25  N           0     133.175 133.137 141.410  0.00  0.00    -0.337 N 
ATOM     26  C           0     131.804 132.853 140.979  0.00  0.00     0.154 C 
ATOM     27  C           0     133.733 134.481 141.237  0.00  0.00     0.154 C 
ATOM     28  O           0     133.460 131.050 142.110  0.00  0.00    -0.238 OA
ENDBRANCH  23  24
ENDBRANCH  22  23
ENDBRANCH   6  22
BRANCH  18  29
ATOM     29  O           0     139.016 131.603 147.142  0.00  0.00    -0.362 OA
ATOM     30  H           0     138.663 132.200 147.816  0.00  0.00     0.213 HD
ENDBRANCH  18  29
BRANCH  18  31
ATOM     31  O           0     138.125 130.973 145.063  0.00  0.00    -0.362 OA
ATOM     32  H           0     137.506 130.449 145.587  0.00  0.00     0.213 HD
ENDBRANCH  18  31
TORSDOF 5
ENDMDL
MODEL 7
REMARK VINA RESULT:      -6.9      1.988      5.726
REMARK  5 active torsions:
REMARK  status: ('A' for Active; 'I' for Inactive)
REMARK    1  A    between atoms: C_6  and  C_7 
REMARK    2  A    between atoms: C_7  and  O_8 
REMARK    3  A    between atoms: O_8  and  C_9 
REMARK       I    between atoms: C_9  and  N_10 
REMARK    4  A    between atoms: C_25  and  O_26 
REMARK    5  A    between atoms: C_25  and  O_27 
ROOT
ATOM      1  N           0     137.877 135.218 147.755  0.00  0.00    -0.235 N 
ATOM      2  H           0     137.577 136.116 147.542  0.00  0.00     0.174 HD
ATOM      3  H           0     138.620 135.087 148.366  0.00  0.00     0.174 HD
ATOM      4  C           0     137.279 134.188 147.226  0.00  0.00     0.672 C 
ATOM      5  N           0     136.211 134.323 146.355  0.00  0.00    -0.218 N 
ATOM      6  C           0     136.000 133.281 145.355  0.00  0.00     0.151 C 
ATOM      7  C           0     135.977 131.889 145.955  0.00  0.00     0.180 C 
ATOM      8  N           0     134.673 131.666 146.616  0.00  0.00    -0.216 N 
ATOM      9  C           0     134.912 130.977 147.780  0.00  0.00     0.670 C 
ATOM     10  N           0     134.006 130.300 148.429  0.00  0.00    -0.235 N 
ATOM     11  H           0     133.097 130.262 148.094  0.00  0.00     0.174 HD
ATOM     12  H           0     134.242 129.835 149.247  0.00  0.00     0.174 HD
ATOM     13  C           0     136.992 131.676 147.067  0.00  0.00     0.217 C 
ATOM     14  N           0     136.222 131.089 148.175  0.00  0.00    -0.191 N 
ATOM     15  N           0     137.669 132.901 147.492  0.00  0.00    -0.183 N 
ATOM     16  C           0     138.878 132.452 148.206  0.00  0.00     0.150 C 
ATOM     17  C           0     139.369 131.228 147.395  0.00  0.00     0.093 C 
ATOM     18  C           0     138.115 130.714 146.644  0.00  0.00     0.209 C 
ATOM     19  H           0     135.619 135.090 146.409  0.00  0.00     0.178 HD
ATOM     20  H           0     133.808 131.954 146.288  0.00  0.00     0.178 HD
ATOM     21  H           0     136.579 130.823 149.038  0.00  0.00     0.180 HD
ENDROOT
BRANCH   6  22
ATOM     22  C           0     137.125 133.353 144.321  0.00  0.00     0.208 C 
BRANCH  22  23
ATOM     23  O           0     136.616 133.931 143.090  0.00  0.00    -0.302 OA
BRANCH  23  24
ATOM     24  C           0     135.552 133.377 142.477  0.00  0.00     0.362 C 
ATOM     25  N           0     134.428 134.099 142.293  0.00  0.00    -0.337 N 
ATOM     26  C           0     133.271 133.497 141.626  0.00  0.00     0.154 C 
ATOM     27  C           0     134.364 135.485 142.762  0.00  0.00     0.154 C 
ATOM     28  O           0     135.605 132.228 142.088  0.00  0.00    -0.238 OA
ENDBRANCH  23  24
ENDBRANCH  22  23
ENDBRANCH   6  22
BRANCH  18  29
ATOM     29  O           0     137.808 129.376 147.041  0.00  0.00    -0.362 OA
ATOM     30  H           0     137.142 129.438 147.740  0.00  0.00     0.213 HD
ENDBRANCH  18  29
BRANCH  18  31
ATOM     31  O           0     138.320 130.781 145.231  0.00  0.00    -0.362 OA
ATOM     32  H           0     137.483 130.536 144.815  0.00  0.00     0.213 HD
ENDBRANCH  18  31
TORSDOF 5
ENDMDL
MODEL 8
REMARK VINA RESULT:      -6.8     10.596     13.458
REMARK  5 active torsions:
REMARK  status: ('A' for Active; 'I' for Inactive)
REMARK    1  A    between atoms: C_6  and  C_7 
REMARK    2  A    between atoms: C_7  and  O_8 
REMARK    3  A    between atoms: O_8  and  C_9 
REMARK       I    between atoms: C_9  and  N_10 
REMARK    4  A    between atoms: C_25  and  O_26 
REMARK    5  A    between atoms: C_25  and  O_27 
ROOT
ATOM      1  N           0     128.914 133.192 131.455  0.00  0.00    -0.235 N 
ATOM      2  H           0     128.168 132.718 131.054  0.00  0.00     0.174 HD
ATOM      3  H           0     129.126 134.094 131.168  0.00  0.00     0.174 HD
ATOM      4  C           0     129.628 132.618 132.383  0.00  0.00     0.672 C 
ATOM      5  N           0     129.361 131.336 132.830  0.00  0.00    -0.218 N 
ATOM      6  C           0     130.470 130.541 133.349  0.00  0.00     0.151 C 
ATOM      7  C           0     131.275 131.276 134.402  0.00  0.00     0.180 C 
ATOM      8  N           0     130.530 131.264 135.680  0.00  0.00    -0.216 N 
ATOM      9  C           0     130.691 132.496 136.265  0.00  0.00     0.670 C 
ATOM     10  N           0     130.494 132.737 137.531  0.00  0.00    -0.235 N 
ATOM     11  H           0     130.215 132.021 138.123  0.00  0.00     0.174 HD
ATOM     12  H           0     130.626 133.632 137.881  0.00  0.00     0.174 HD
ATOM     13  C           0     131.475 132.755 134.111  0.00  0.00     0.217 C 
ATOM     14  N           0     131.086 133.443 135.352  0.00  0.00    -0.191 N 
ATOM     15  N           0     130.694 133.244 132.974  0.00  0.00    -0.183 N 
ATOM     16  C           0     131.336 134.510 132.575  0.00  0.00     0.150 C 
ATOM     17  C           0     132.851 134.242 132.749  0.00  0.00     0.093 C 
ATOM     18  C           0     132.939 133.080 133.770  0.00  0.00     0.209 C 
ATOM     19  H           0     128.461 130.975 132.800  0.00  0.00     0.178 HD
ATOM     20  H           0     130.020 130.522 136.038  0.00  0.00     0.178 HD
ATOM     21  H           0     131.107 134.401 135.502  0.00  0.00     0.180 HD
ENDROOT
BRANCH   6  22
ATOM     22  C           0     131.397 130.170 132.190  0.00  0.00     0.208 C 
BRANCH  22  23
ATOM     23  O           0     131.136 128.803 131.779  0.00  0.00    -0.302 OA
BRANCH  23  24
ATOM     24  C           0     131.713 127.780 132.438  0.00  0.00     0.362 C 
ATOM     25  N           0     131.157 126.552 132.395  0.00  0.00    -0.337 N 
ATOM     26  C           0     131.784 125.439 133.112  0.00  0.00     0.154 C 
ATOM     27  C           0     129.926 126.331 131.633  0.00  0.00     0.154 C 
ATOM     28  O           0     132.733 127.963 133.070  0.00  0.00    -0.238 OA
ENDBRANCH  23  24
ENDBRANCH  22  23
ENDBRANCH   6  22
BRANCH  18  29
ATOM     29  O           0     133.648 133.497 134.940  0.00  0.00    -0.362 OA
ATOM     30  H           0     134.350 134.092 134.643  0.00  0.00     0.213 HD
ENDBRANCH  18  29
BRANCH  18  31
ATOM     31  O           0     133.576 131.945 133.178  0.00  0.00    -0.362 OA
ATOM     32  H           0     132.965 131.595 132.517  0.00  0.00     0.213 HD
ENDBRANCH  18  31
TORSDOF 5
ENDMDL
MODEL 9
REMARK VINA RESULT:      -6.8     10.737     12.373
REMARK  5 active torsions:
REMARK  status: ('A' for Active; 'I' for Inactive)
REMARK    1  A    between atoms: C_6  and  C_7 
REMARK    2  A    between atoms: C_7  and  O_8 
REMARK    3  A    between atoms: O_8  and  C_9 
REMARK       I    between atoms: C_9  and  N_10 
REMARK    4  A    between atoms: C_25  and  O_26 
REMARK    5  A    between atoms: C_25  and  O_27 
ROOT
ATOM      1  N           0     134.241 133.366 132.180  0.00  0.00    -0.235 N 
ATOM      2  H           0     134.217 132.712 131.464  0.00  0.00     0.174 HD
ATOM      3  H           0     135.090 133.735 132.472  0.00  0.00     0.174 HD
ATOM      4  C           0     133.133 133.755 132.747  0.00  0.00     0.672 C 
ATOM      5  N           0     131.898 133.264 132.362  0.00  0.00    -0.218 N 
ATOM      6  C           0     130.831 133.222 133.357  0.00  0.00     0.151 C 
ATOM      7  C           0     130.638 134.547 134.066  0.00  0.00     0.180 C 
ATOM      8  N           0     129.912 135.476 133.173  0.00  0.00    -0.216 N 
ATOM      9  C           0     130.472 136.721 133.327  0.00  0.00     0.670 C 
ATOM     10  N           0     129.882 137.835 132.992  0.00  0.00    -0.235 N 
ATOM     11  H           0     128.992 137.815 132.607  0.00  0.00     0.174 HD
ATOM     12  H           0     130.334 138.682 133.127  0.00  0.00     0.174 HD
ATOM     13  C           0     131.935 135.279 134.377  0.00  0.00     0.217 C 
ATOM     14  N           0     131.727 136.648 133.878  0.00  0.00    -0.191 N 
ATOM     15  N           0     133.117 134.672 133.765  0.00  0.00    -0.183 N 
ATOM     16  C           0     134.265 135.212 134.515  0.00  0.00     0.150 C 
ATOM     17  C           0     133.774 135.265 135.982  0.00  0.00     0.093 C 
ATOM     18  C           0     132.228 135.313 135.886  0.00  0.00     0.209 C 
ATOM     19  H           0     131.745 132.957 131.454  0.00  0.00     0.178 HD
ATOM     20  H           0     129.176 135.247 132.586  0.00  0.00     0.178 HD
ATOM     21  H           0     132.367 137.375 133.930  0.00  0.00     0.180 HD
ENDROOT
BRANCH   6  22
ATOM     22  C           0     131.167 132.151 134.397  0.00  0.00     0.208 C 
BRANCH  22  23
ATOM     23  O           0     131.535 130.919 133.722  0.00  0.00    -0.302 OA
BRANCH  23  24
ATOM     24  C           0     132.753 130.381 133.920  0.00  0.00     0.362 C 
ATOM     25  N           0     133.414 129.812 132.892  0.00  0.00    -0.337 N 
ATOM     26  C           0     134.740 129.227 133.106  0.00  0.00     0.154 C 
ATOM     27  C           0     132.807 129.779 131.559  0.00  0.00     0.154 C 
ATOM     28  O           0     133.257 130.408 135.024  0.00  0.00    -0.238 OA
ENDBRANCH  23  24
ENDBRANCH  22  23
ENDBRANCH   6  22
BRANCH  18  29
ATOM     29  O           0     131.729 136.518 136.470  0.00  0.00    -0.362 OA
ATOM     30  H           0     130.914 136.286 136.936  0.00  0.00     0.213 HD
ENDBRANCH  18  29
BRANCH  18  31
ATOM     31  O           0     131.654 134.172 136.530  0.00  0.00    -0.362 OA
ATOM     32  H           0     131.350 133.580 135.830  0.00  0.00     0.213 HD
ENDBRANCH  18  31
TORSDOF 5
ENDMDL
