MODEL 1
REMARK VINA RESULT:      -7.5      0.000      0.000
REMARK  5 active torsions:
REMARK  status: ('A' for Active; 'I' for Inactive)
REMARK    1  A    between atoms: C_6  and  C_7 
REMARK    2  A    between atoms: C_7  and  O_8 
REMARK    3  A    between atoms: O_8  and  C_9 
REMARK    4  A    between atoms: C_24  and  O_25 
REMARK    5  A    between atoms: C_24  and  O_26 
ROOT
ATOM      1  N           0     135.567 136.646 143.311  0.00  0.00    -0.235 N 
ATOM      2  H           0     134.835 137.232 143.061  0.00  0.00     0.174 HD
ATOM      3  H           0     136.457 137.010 143.439  0.00  0.00     0.174 HD
ATOM      4  C           0     135.352 135.372 143.481  0.00  0.00     0.672 C 
ATOM      5  N           0     134.101 134.808 143.316  0.00  0.00    -0.218 N 
ATOM      6  C           0     134.018 133.413 142.893  0.00  0.00     0.151 C 
ATOM      7  C           0     134.865 132.493 143.752  0.00  0.00     0.180 C 
ATOM      8  N           0     134.166 132.244 145.030  0.00  0.00    -0.216 N 
ATOM      9  C           0     135.111 132.251 146.027  0.00  0.00     0.670 C 
ATOM     10  N           0     134.935 131.722 147.207  0.00  0.00    -0.235 N 
ATOM     11  H           0     134.095 131.290 147.423  0.00  0.00     0.174 HD
ATOM     12  H           0     135.646 131.762 147.866  0.00  0.00     0.174 HD
ATOM     13  C           0     136.197 133.089 144.174  0.00  0.00     0.217 C 
ATOM     14  N           0     136.262 132.884 145.630  0.00  0.00    -0.191 N 
ATOM     15  N           0     136.358 134.502 143.830  0.00  0.00    -0.179 N 
ATOM     16  C           0     137.801 134.783 143.873  0.00  0.00     0.106 C 
ATOM     17  C           0     138.184 135.345 145.244  0.00  0.00     0.033 C 
ATOM     18  C           0     138.522 133.440 143.631  0.00  0.00     0.098 C 
ATOM     19  C           0     137.386 132.389 143.489  0.00  0.00     0.210 C 
ATOM     20  H           0     133.297 135.326 143.478  0.00  0.00     0.178 HD
ATOM     21  H           0     133.214 132.100 145.144  0.00  0.00     0.178 HD
ATOM     22  H           0     136.995 133.147 146.208  0.00  0.00     0.180 HD
ENDROOT
BRANCH   6  23
ATOM     23  C           0     134.492 133.307 141.442  0.00  0.00     0.206 C 
BRANCH  23  24
ATOM     24  O           0     133.390 133.619 140.549  0.00  0.00    -0.320 OA
BRANCH  24  25
ATOM     25  C           0     133.335 134.815 139.941  0.00  0.00     0.254 C 
ATOM     26  C           0     133.291 134.895 138.437  0.00  0.00     0.126 C 
ATOM     27  O           0     133.321 135.827 140.601  0.00  0.00    -0.266 OA
ENDBRANCH  24  25
ENDBRANCH  23  24
ENDBRANCH   6  23
BRANCH  19  28
ATOM     28  O           0     137.730 131.176 144.162  0.00  0.00    -0.362 OA
ATOM     29  H           0     137.777 130.485 143.488  0.00  0.00     0.213 HD
ENDBRANCH  19  28
BRANCH  19  30
ATOM     30  O           0     137.097 132.140 142.111  0.00  0.00    -0.362 OA
ATOM     31  H           0     137.756 131.506 141.797  0.00  0.00     0.213 HD
ENDBRANCH  19  30
TORSDOF 5
ENDMDL
MODEL 2
REMARK VINA RESULT:      -7.1      3.640      5.730
REMARK  5 active torsions:
REMARK  status: ('A' for Active; 'I' for Inactive)
REMARK    1  A    between atoms: C_6  and  C_7 
REMARK    2  A    between atoms: C_7  and  O_8 
REMARK    3  A    between atoms: O_8  and  C_9 
REMARK    4  A    between atoms: C_24  and  O_25 
REMARK    5  A    between atoms: C_24  and  O_26 
ROOT
ATOM      1  N           0     138.459 133.571 142.570  0.00  0.00    -0.235 N 
ATOM      2  H           0     139.266 133.929 142.168  0.00  0.00     0.174 HD
ATOM      3  H           0     137.685 133.382 142.018  0.00  0.00     0.174 HD
ATOM      4  C           0     138.418 133.340 143.853  0.00  0.00     0.672 C 
ATOM      5  N           0     139.498 133.589 144.679  0.00  0.00    -0.218 N 
ATOM      6  C           0     139.239 133.926 146.077  0.00  0.00     0.151 C 
ATOM      7  C           0     138.317 132.931 146.754  0.00  0.00     0.180 C 
ATOM      8  N           0     139.082 131.713 147.093  0.00  0.00    -0.216 N 
ATOM      9  C           0     138.275 130.631 146.839  0.00  0.00     0.670 C 
ATOM     10  N           0     138.462 129.443 147.342  0.00  0.00    -0.235 N 
ATOM     11  H           0     139.211 129.281 147.936  0.00  0.00     0.174 HD
ATOM     12  H           0     137.852 128.722 147.121  0.00  0.00     0.174 HD
ATOM     13  C           0     137.194 132.421 145.867  0.00  0.00     0.217 C 
ATOM     14  N           0     137.245 130.955 145.991  0.00  0.00    -0.191 N 
ATOM     15  N           0     137.296 132.840 144.468  0.00  0.00    -0.179 N 
ATOM     16  C           0     135.958 132.675 143.882  0.00  0.00     0.106 C 
ATOM     17  C           0     135.853 131.313 143.192  0.00  0.00     0.033 C 
ATOM     18  C           0     134.949 132.757 145.047  0.00  0.00     0.098 C 
ATOM     19  C           0     135.816 132.940 146.323  0.00  0.00     0.210 C 
ATOM     20  H           0     140.405 133.540 144.340  0.00  0.00     0.178 HD
ATOM     21  H           0     139.990 131.683 147.433  0.00  0.00     0.178 HD
ATOM     22  H           0     136.651 130.327 145.551  0.00  0.00     0.180 HD
ENDROOT
BRANCH   6  23
ATOM     23  C           0     138.599 135.314 146.140  0.00  0.00     0.206 C 
BRANCH  23  24
ATOM     24  O           0     139.489 136.287 145.533  0.00  0.00    -0.320 OA
BRANCH  24  25
ATOM     25  C           0     139.996 137.287 146.271  0.00  0.00     0.254 C 
ATOM     26  C           0     139.465 137.544 147.658  0.00  0.00     0.126 C 
ATOM     27  O           0     140.878 137.981 145.823  0.00  0.00    -0.266 OA
ENDBRANCH  24  25
ENDBRANCH  23  24
ENDBRANCH   6  23
BRANCH  19  28
ATOM     28  O           0     135.301 132.159 147.403  0.00  0.00    -0.362 OA
ATOM     29  H           0     134.567 131.640 147.048  0.00  0.00     0.213 HD
ENDBRANCH  19  28
BRANCH  19  30
ATOM     30  O           0     135.895 134.321 146.688  0.00  0.00    -0.362 OA
ATOM     31  H           0     136.489 134.744 146.052  0.00  0.00     0.213 HD
ENDBRANCH  19  30
TORSDOF 5
ENDMDL
MODEL 3
REMARK VINA RESULT:      -7.1      2.525      4.119
REMARK  5 active torsions:
REMARK  status: ('A' for Active; 'I' for Inactive)
REMARK    1  A    between atoms: C_6  and  C_7 
REMARK    2  A    between atoms: C_7  and  O_8 
REMARK    3  A    between atoms: O_8  and  C_9 
REMARK    4  A    between atoms: C_24  and  O_25 
REMARK    5  A    between atoms: C_24  and  O_26 
ROOT
ATOM      1  N           0     135.091 130.002 144.754  0.00  0.00    -0.235 N 
ATOM      2  H           0     134.826 129.423 144.022  0.00  0.00     0.174 HD
ATOM      3  H           0     134.797 129.807 145.657  0.00  0.00     0.174 HD
ATOM      4  C           0     135.849 131.038 144.523  0.00  0.00     0.672 C 
ATOM      5  N           0     136.297 131.352 143.254  0.00  0.00    -0.218 N 
ATOM      6  C           0     136.562 132.754 142.939  0.00  0.00     0.151 C 
ATOM      7  C           0     137.462 133.420 143.961  0.00  0.00     0.180 C 
ATOM      8  N           0     138.860 133.006 143.719  0.00  0.00    -0.216 N 
ATOM      9  C           0     139.451 132.805 144.943  0.00  0.00     0.670 C 
ATOM     10  N           0     140.740 132.787 145.140  0.00  0.00    -0.235 N 
ATOM     11  H           0     141.346 132.921 144.395  0.00  0.00     0.174 HD
ATOM     12  H           0     141.091 132.641 146.032  0.00  0.00     0.174 HD
ATOM     13  C           0     137.198 132.993 145.394  0.00  0.00     0.217 C 
ATOM     14  N           0     138.517 132.627 145.933  0.00  0.00    -0.191 N 
ATOM     15  N           0     136.246 131.889 145.526  0.00  0.00    -0.179 N 
ATOM     16  C           0     135.762 131.915 146.914  0.00  0.00     0.106 C 
ATOM     17  C           0     136.588 130.957 147.774  0.00  0.00     0.033 C 
ATOM     18  C           0     135.937 133.364 147.418  0.00  0.00     0.098 C 
ATOM     19  C           0     136.584 134.131 146.232  0.00  0.00     0.210 C 
ATOM     20  H           0     136.435 130.659 142.589  0.00  0.00     0.178 HD
ATOM     21  H           0     139.284 132.896 142.854  0.00  0.00     0.178 HD
ATOM     22  H           0     138.696 132.316 146.834  0.00  0.00     0.180 HD
ENDROOT
BRANCH   6  23
ATOM     23  C           0     135.232 133.508 142.887  0.00  0.00     0.206 C 
BRANCH  23  24
ATOM     24  O           0     134.541 133.188 141.650  0.00  0.00    -0.320 OA
BRANCH  24  25
ATOM     25  C           0     133.459 132.395 141.670  0.00  0.00     0.254 C 
ATOM     26  C           0     132.147 132.895 141.125  0.00  0.00     0.126 C 
ATOM     27  O           0     133.537 131.279 142.127  0.00  0.00    -0.266 OA
ENDBRANCH  24  25
ENDBRANCH  23  24
ENDBRANCH   6  23
BRANCH  19  28
ATOM     28  O           0     137.592 135.030 146.700  0.00  0.00    -0.362 OA
ATOM     29  H           0     137.365 135.255 147.612  0.00  0.00     0.213 HD
ENDBRANCH  19  28
BRANCH  19  30
ATOM     30  O           0     135.589 134.830 145.479  0.00  0.00    -0.362 OA
ATOM     31  H           0     134.854 134.215 145.348  0.00  0.00     0.213 HD
ENDBRANCH  19  30
TORSDOF 5
ENDMDL
MODEL 4
REMARK VINA RESULT:      -7.0      3.113      5.780
REMARK  5 active torsions:
REMARK  status: ('A' for Active; 'I' for Inactive)
REMARK    1  A    between atoms: C_6  and  C_7 
REMARK    2  A    between atoms: C_7  and  O_8 
REMARK    3  A    between atoms: O_8  and  C_9 
REMARK    4  A    between atoms: C_24  and  O_25 
REMARK    5  A    between atoms: C_24  and  O_26 
ROOT
ATOM      1  N           0     139.007 130.550 145.960  0.00  0.00    -0.235 N 
ATOM      2  H           0     139.176 129.672 146.338  0.00  0.00     0.174 HD
ATOM      3  H           0     139.747 131.102 145.666  0.00  0.00     0.174 HD
ATOM      4  C           0     137.783 130.984 145.841  0.00  0.00     0.672 C 
ATOM      5  N           0     136.694 130.231 146.241  0.00  0.00    -0.218 N 
ATOM      6  C           0     135.491 130.931 146.682  0.00  0.00     0.151 C 
ATOM      7  C           0     135.029 131.978 145.687  0.00  0.00     0.180 C 
ATOM      8  N           0     134.341 131.309 144.563  0.00  0.00    -0.216 N 
ATOM      9  C           0     134.715 131.950 143.407  0.00  0.00     0.670 C 
ATOM     10  N           0     134.053 131.882 142.285  0.00  0.00    -0.235 N 
ATOM     11  H           0     133.243 131.353 142.232  0.00  0.00     0.174 HD
ATOM     12  H           0     134.373 132.362 141.505  0.00  0.00     0.174 HD
ATOM     13  C           0     136.160 132.742 145.020  0.00  0.00     0.217 C 
ATOM     14  N           0     135.869 132.672 143.578  0.00  0.00    -0.191 N 
ATOM     15  N           0     137.494 132.221 145.318  0.00  0.00    -0.179 N 
ATOM     16  C           0     138.445 133.298 145.004  0.00  0.00     0.106 C 
ATOM     17  C           0     138.983 133.124 143.582  0.00  0.00     0.033 C 
ATOM     18  C           0     137.666 134.625 145.117  0.00  0.00     0.098 C 
ATOM     19  C           0     136.211 134.213 145.476  0.00  0.00     0.210 C 
ATOM     20  H           0     136.728 129.261 146.228  0.00  0.00     0.178 HD
ATOM     21  H           0     133.735 130.555 144.629  0.00  0.00     0.178 HD
ATOM     22  H           0     136.401 133.071 142.872  0.00  0.00     0.180 HD
ENDROOT
BRANCH   6  23
ATOM     23  C           0     135.778 131.614 148.020  0.00  0.00     0.206 C 
BRANCH  23  24
ATOM     24  O           0     134.566 132.242 148.514  0.00  0.00    -0.320 OA
BRANCH  24  25
ATOM     25  C           0     133.722 131.551 149.296  0.00  0.00     0.254 C 
ATOM     26  C           0     134.223 130.371 150.088  0.00  0.00     0.126 C 
ATOM     27  O           0     132.560 131.877 149.366  0.00  0.00    -0.266 OA
ENDBRANCH  24  25
ENDBRANCH  23  24
ENDBRANCH   6  23
BRANCH  19  28
ATOM     28  O           0     135.267 135.010 144.759  0.00  0.00    -0.362 OA
ATOM     29  H           0     134.390 134.662 144.969  0.00  0.00     0.213 HD
ENDBRANCH  19  28
BRANCH  19  30
ATOM     30  O           0     135.991 134.310 146.886  0.00  0.00    -0.362 OA
ATOM     31  H           0     136.511 135.062 147.199  0.00  0.00     0.213 HD
ENDBRANCH  19  30
TORSDOF 5
ENDMDL
MODEL 5
REMARK VINA RESULT:      -6.9      1.831      2.479
REMARK  5 active torsions:
REMARK  status: ('A' for Active; 'I' for Inactive)
REMARK    1  A    between atoms: C_6  and  C_7 
REMARK    2  A    between atoms: C_7  and  O_8 
REMARK    3  A    between atoms: O_8  and  C_9 
REMARK    4  A    between atoms: C_24  and  O_25 
REMARK    5  A    between atoms: C_24  and  O_26 
ROOT
ATOM      1  N           0     136.348 135.389 143.416  0.00  0.00    -0.235 N 
ATOM      2  H           0     135.592 135.734 142.913  0.00  0.00     0.174 HD
ATOM      3  H           0     137.227 135.779 143.298  0.00  0.00     0.174 HD
ATOM      4  C           0     136.178 134.404 144.253  0.00  0.00     0.672 C 
ATOM      5  N           0     134.943 133.819 144.459  0.00  0.00    -0.218 N 
ATOM      6  C           0     134.897 132.415 144.859  0.00  0.00     0.151 C 
ATOM      7  C           0     135.789 132.120 146.049  0.00  0.00     0.180 C 
ATOM      8  N           0     135.123 132.588 147.283  0.00  0.00    -0.216 N 
ATOM      9  C           0     136.085 133.149 148.086  0.00  0.00     0.670 C 
ATOM     10  N           0     135.949 133.338 149.370  0.00  0.00    -0.235 N 
ATOM     11  H           0     135.127 133.076 149.813  0.00  0.00     0.174 HD
ATOM     12  H           0     136.670 133.740 149.879  0.00  0.00     0.174 HD
ATOM     13  C           0     137.109 132.872 146.039  0.00  0.00     0.217 C 
ATOM     14  N           0     137.208 133.487 147.373  0.00  0.00    -0.191 N 
ATOM     15  N           0     137.218 133.878 144.982  0.00  0.00    -0.179 N 
ATOM     16  C           0     138.651 134.163 144.819  0.00  0.00     0.106 C 
ATOM     17  C           0     139.041 135.383 145.657  0.00  0.00     0.033 C 
ATOM     18  C           0     139.411 132.914 145.316  0.00  0.00     0.098 C 
ATOM     19  C           0     138.307 131.934 145.800  0.00  0.00     0.210 C 
ATOM     20  H           0     134.125 134.329 144.343  0.00  0.00     0.178 HD
ATOM     21  H           0     134.178 132.513 147.487  0.00  0.00     0.178 HD
ATOM     22  H           0     137.943 134.033 147.693  0.00  0.00     0.180 HD
ENDROOT
BRANCH   6  23
ATOM     23  C           0     135.347 131.551 143.679  0.00  0.00     0.206 C 
BRANCH  23  24
ATOM     24  O           0     134.284 131.487 142.692  0.00  0.00    -0.320 OA
BRANCH  24  25
ATOM     25  C           0     134.116 132.493 141.819  0.00  0.00     0.254 C 
ATOM     26  C           0     132.727 132.917 141.416  0.00  0.00     0.126 C 
ATOM     27  O           0     135.079 133.059 141.358  0.00  0.00    -0.266 OA
ENDBRANCH  24  25
ENDBRANCH  23  24
ENDBRANCH   6  23
BRANCH  19  28
ATOM     28  O           0     138.703 131.283 147.010  0.00  0.00    -0.362 OA
ATOM     29  H           0     138.632 131.938 147.717  0.00  0.00     0.213 HD
ENDBRANCH  19  28
BRANCH  19  30
ATOM     30  O           0     138.001 130.975 144.785  0.00  0.00    -0.362 OA
ATOM     31  H           0     138.423 130.145 145.046  0.00  0.00     0.213 HD
ENDBRANCH  19  30
TORSDOF 5
ENDMDL
MODEL 6
REMARK VINA RESULT:      -6.5      3.649      6.167
REMARK  5 active torsions:
REMARK  status: ('A' for Active; 'I' for Inactive)
REMARK    1  A    between atoms: C_6  and  C_7 
REMARK    2  A    between atoms: C_7  and  O_8 
REMARK    3  A    between atoms: O_8  and  C_9 
REMARK    4  A    between atoms: C_24  and  O_25 
REMARK    5  A    between atoms: C_24  and  O_26 
ROOT
ATOM      1  N           0     134.349 131.463 144.131  0.00  0.00    -0.235 N 
ATOM      2  H           0     133.541 130.928 144.197  0.00  0.00     0.174 HD
ATOM      3  H           0     134.632 131.808 143.270  0.00  0.00     0.174 HD
ATOM      4  C           0     135.048 131.721 145.200  0.00  0.00     0.672 C 
ATOM      5  N           0     134.681 131.256 146.449  0.00  0.00    -0.218 N 
ATOM      6  C           0     135.731 131.011 147.434  0.00  0.00     0.151 C 
ATOM      7  C           0     136.660 132.197 147.602  0.00  0.00     0.180 C 
ATOM      8  N           0     135.993 133.222 148.432  0.00  0.00    -0.216 N 
ATOM      9  C           0     136.295 134.451 147.897  0.00  0.00     0.670 C 
ATOM     10  N           0     136.192 135.578 148.545  0.00  0.00    -0.235 N 
ATOM     11  H           0     135.884 135.581 149.464  0.00  0.00     0.174 HD
ATOM     12  H           0     136.423 136.411 148.106  0.00  0.00     0.174 HD
ATOM     13  C           0     136.978 132.926 146.307  0.00  0.00     0.217 C 
ATOM     14  N           0     136.721 134.346 146.596  0.00  0.00    -0.191 N 
ATOM     15  N           0     136.200 132.469 145.155  0.00  0.00    -0.179 N 
ATOM     16  C           0     136.925 132.914 143.956  0.00  0.00     0.106 C 
ATOM     17  C           0     136.363 134.252 143.471  0.00  0.00     0.033 C 
ATOM     18  C           0     138.404 133.079 144.367  0.00  0.00     0.098 C 
ATOM     19  C           0     138.446 132.732 145.881  0.00  0.00     0.210 C 
ATOM     20  H           0     133.750 131.097 146.667  0.00  0.00     0.178 HD
ATOM     21  H           0     135.441 133.058 149.213  0.00  0.00     0.178 HD
ATOM     22  H           0     136.835 135.082 145.974  0.00  0.00     0.180 HD
ENDROOT
BRANCH   6  23
ATOM     23  C           0     136.554 129.800 146.989  0.00  0.00     0.206 C 
BRANCH  23  24
ATOM     24  O           0     137.598 129.538 147.964  0.00  0.00    -0.320 OA
BRANCH  24  25
ATOM     25  C           0     137.585 128.398 148.673  0.00  0.00     0.254 C 
ATOM     26  C           0     138.852 127.602 148.843  0.00  0.00     0.126 C 
ATOM     27  O           0     136.556 128.011 149.174  0.00  0.00    -0.266 OA
ENDBRANCH  24  25
ENDBRANCH  23  24
ENDBRANCH   6  23
BRANCH  19  28
ATOM     28  O           0     139.311 133.629 146.582  0.00  0.00    -0.362 OA
ATOM     29  H           0     139.552 134.329 145.961  0.00  0.00     0.213 HD
ENDBRANCH  19  28
BRANCH  19  30
ATOM     30  O           0     138.852 131.376 146.079  0.00  0.00    -0.362 OA
ATOM     31  H           0     139.818 131.376 146.117  0.00  0.00     0.213 HD
ENDBRANCH  19  30
TORSDOF 5
ENDMDL
MODEL 7
REMARK VINA RESULT:      -6.5      3.566      5.225
REMARK  5 active torsions:
REMARK  status: ('A' for Active; 'I' for Inactive)
REMARK    1  A    between atoms: C_6  and  C_7 
REMARK    2  A    between atoms: C_7  and  O_8 
REMARK    3  A    between atoms: O_8  and  C_9 
REMARK    4  A    between atoms: C_24  and  O_25 
REMARK    5  A    between atoms: C_24  and  O_26 
ROOT
ATOM      1  N           0     134.869 132.627 142.799  0.00  0.00    -0.235 N 
ATOM      2  H           0     133.965 132.398 142.532  0.00  0.00     0.174 HD
ATOM      3  H           0     135.498 132.965 142.142  0.00  0.00     0.174 HD
ATOM      4  C           0     135.237 132.488 144.042  0.00  0.00     0.672 C 
ATOM      5  N           0     134.375 132.016 145.014  0.00  0.00    -0.218 N 
ATOM      6  C           0     134.941 131.299 146.154  0.00  0.00     0.151 C 
ATOM      7  C           0     136.069 132.062 146.820  0.00  0.00     0.180 C 
ATOM      8  N           0     135.498 133.135 147.661  0.00  0.00    -0.216 N 
ATOM      9  C           0     136.295 134.244 147.516  0.00  0.00     0.670 C 
ATOM     10  N           0     136.321 135.243 148.354  0.00  0.00    -0.235 N 
ATOM     11  H           0     135.753 135.231 149.139  0.00  0.00     0.174 HD
ATOM     12  H           0     136.910 135.996 148.192  0.00  0.00     0.174 HD
ATOM     13  C           0     136.976 132.801 145.852  0.00  0.00     0.217 C 
ATOM     14  N           0     137.062 134.172 146.379  0.00  0.00    -0.191 N 
ATOM     15  N           0     136.507 132.794 144.466  0.00  0.00    -0.179 N 
ATOM     16  C           0     137.671 133.117 143.627  0.00  0.00     0.106 C 
ATOM     17  C           0     137.703 134.618 143.332  0.00  0.00     0.033 C 
ATOM     18  C           0     138.924 132.709 144.431  0.00  0.00     0.098 C 
ATOM     19  C           0     138.382 132.173 145.785  0.00  0.00     0.210 C 
ATOM     20  H           0     133.418 132.159 144.943  0.00  0.00     0.178 HD
ATOM     21  H           0     134.705 133.069 148.215  0.00  0.00     0.178 HD
ATOM     22  H           0     137.575 134.899 145.992  0.00  0.00     0.180 HD
ENDROOT
BRANCH   6  23
ATOM     23  C           0     135.476 129.949 145.672  0.00  0.00     0.206 C 
BRANCH  23  24
ATOM     24  O           0     135.820 129.127 146.819  0.00  0.00    -0.320 OA
BRANCH  24  25
ATOM     25  C           0     134.852 128.615 147.595  0.00  0.00     0.254 C 
ATOM     26  C           0     134.861 128.872 149.079  0.00  0.00     0.126 C 
ATOM     27  O           0     133.973 127.949 147.102  0.00  0.00    -0.266 OA
ENDBRANCH  24  25
ENDBRANCH  23  24
ENDBRANCH   6  23
BRANCH  19  28
ATOM     28  O           0     139.199 132.618 146.870  0.00  0.00    -0.362 OA
ATOM     29  H           0     138.600 132.912 147.569  0.00  0.00     0.213 HD
ENDBRANCH  19  28
BRANCH  19  30
ATOM     30  O           0     138.295 130.746 145.767  0.00  0.00    -0.362 OA
ATOM     31  H           0     139.052 130.414 146.269  0.00  0.00     0.213 HD
ENDBRANCH  19  30
TORSDOF 5
ENDMDL
MODEL 8
REMARK VINA RESULT:      -6.4      2.705      4.120
REMARK  5 active torsions:
REMARK  status: ('A' for Active; 'I' for Inactive)
REMARK    1  A    between atoms: C_6  and  C_7 
REMARK    2  A    between atoms: C_7  and  O_8 
REMARK    3  A    between atoms: O_8  and  C_9 
REMARK    4  A    between atoms: C_24  and  O_25 
REMARK    5  A    between atoms: C_24  and  O_26 
ROOT
ATOM      1  N           0     140.450 132.405 145.040  0.00  0.00    -0.235 N 
ATOM      2  H           0     140.976 132.864 144.366  0.00  0.00     0.174 HD
ATOM      3  H           0     140.863 131.730 145.600  0.00  0.00     0.174 HD
ATOM      4  C           0     139.190 132.701 145.194  0.00  0.00     0.672 C 
ATOM      5  N           0     138.559 133.659 144.423  0.00  0.00    -0.218 N 
ATOM      6  C           0     137.127 133.518 144.174  0.00  0.00     0.151 C 
ATOM      7  C           0     136.333 133.308 145.448  0.00  0.00     0.180 C 
ATOM      8  N           0     136.178 134.603 146.143  0.00  0.00    -0.216 N 
ATOM      9  C           0     136.323 134.372 147.489  0.00  0.00     0.670 C 
ATOM     10  N           0     135.904 135.182 148.421  0.00  0.00    -0.235 N 
ATOM     11  H           0     135.458 136.009 148.179  0.00  0.00     0.174 HD
ATOM     12  H           0     136.038 134.957 149.355  0.00  0.00     0.174 HD
ATOM     13  C           0     137.024 132.425 146.473  0.00  0.00     0.217 C 
ATOM     14  N           0     136.963 133.182 147.733  0.00  0.00    -0.191 N 
ATOM     15  N           0     138.403 132.074 146.130  0.00  0.00    -0.179 N 
ATOM     16  C           0     138.748 130.894 146.936  0.00  0.00     0.106 C 
ATOM     17  C           0     139.457 131.327 148.222  0.00  0.00     0.033 C 
ATOM     18  C           0     137.421 130.184 147.277  0.00  0.00     0.098 C 
ATOM     19  C           0     136.313 131.067 146.639  0.00  0.00     0.210 C 
ATOM     20  H           0     139.055 134.408 144.057  0.00  0.00     0.178 HD
ATOM     21  H           0     136.005 135.461 145.724  0.00  0.00     0.178 HD
ATOM     22  H           0     137.313 132.890 148.589  0.00  0.00     0.180 HD
ENDROOT
BRANCH   6  23
ATOM     23  C           0     136.902 132.320 143.249  0.00  0.00     0.206 C 
BRANCH  23  24
ATOM     24  O           0     135.854 132.635 142.295  0.00  0.00    -0.320 OA
BRANCH  24  25
ATOM     25  C           0     134.625 132.117 142.452  0.00  0.00     0.254 C 
ATOM     26  C           0     133.416 132.894 141.998  0.00  0.00     0.126 C 
ATOM     27  O           0     134.489 131.027 142.956  0.00  0.00    -0.266 OA
ENDBRANCH  24  25
ENDBRANCH  23  24
ENDBRANCH   6  23
BRANCH  19  28
ATOM     28  O           0     135.187 131.178 147.513  0.00  0.00    -0.362 OA
ATOM     29  H           0     134.427 130.817 147.037  0.00  0.00     0.213 HD
ENDBRANCH  19  28
BRANCH  19  30
ATOM     30  O           0     135.920 130.547 145.367  0.00  0.00    -0.362 OA
ATOM     31  H           0     135.221 131.126 145.032  0.00  0.00     0.213 HD
ENDBRANCH  19  30
TORSDOF 5
ENDMDL
MODEL 9
REMARK VINA RESULT:      -6.4      2.520      3.589
REMARK  5 active torsions:
REMARK  status: ('A' for Active; 'I' for Inactive)
REMARK    1  A    between atoms: C_6  and  C_7 
REMARK    2  A    between atoms: C_7  and  O_8 
REMARK    3  A    between atoms: O_8  and  C_9 
REMARK    4  A    between atoms: C_24  and  O_25 
REMARK    5  A    between atoms: C_24  and  O_26 
ROOT
ATOM      1  N           0     138.314 135.265 147.033  0.00  0.00    -0.235 N 
ATOM      2  H           0     138.034 136.185 146.898  0.00  0.00     0.174 HD
ATOM      3  H           0     139.228 135.069 147.287  0.00  0.00     0.174 HD
ATOM      4  C           0     137.457 134.295 146.878  0.00  0.00     0.672 C 
ATOM      5  N           0     136.141 134.526 146.523  0.00  0.00    -0.218 N 
ATOM      6  C           0     135.434 133.493 145.770  0.00  0.00     0.151 C 
ATOM      7  C           0     135.538 132.127 146.419  0.00  0.00     0.180 C 
ATOM      8  N           0     134.606 132.061 147.564  0.00  0.00    -0.216 N 
ATOM      9  C           0     135.240 131.384 148.577  0.00  0.00     0.670 C 
ATOM     10  N           0     134.625 130.827 149.583  0.00  0.00    -0.235 N 
ATOM     11  H           0     133.659 130.878 149.648  0.00  0.00     0.174 HD
ATOM     12  H           0     135.134 130.362 150.265  0.00  0.00     0.174 HD
ATOM     13  C           0     136.895 131.834 147.036  0.00  0.00     0.217 C 
ATOM     14  N           0     136.601 131.365 148.400  0.00  0.00    -0.191 N 
ATOM     15  N           0     137.806 132.978 147.053  0.00  0.00    -0.179 N 
ATOM     16  C           0     139.160 132.433 147.231  0.00  0.00     0.106 C 
ATOM     17  C           0     139.539 132.446 148.713  0.00  0.00     0.033 C 
ATOM     18  C           0     139.128 130.983 146.705  0.00  0.00     0.098 C 
ATOM     19  C           0     137.659 130.745 146.258  0.00  0.00     0.210 C 
ATOM     20  H           0     135.697 135.354 146.767  0.00  0.00     0.178 HD
ATOM     21  H           0     133.709 132.430 147.595  0.00  0.00     0.178 HD
ATOM     22  H           0     137.257 131.087 149.058  0.00  0.00     0.180 HD
ENDROOT
BRANCH   6  23
ATOM     23  C           0     136.024 133.416 144.361  0.00  0.00     0.206 C 
BRANCH  23  24
ATOM     24  O           0     136.051 134.744 143.773  0.00  0.00    -0.320 OA
BRANCH  24  25
ATOM     25  C           0     134.958 135.232 143.164  0.00  0.00     0.254 C 
ATOM     26  C           0     133.989 134.295 142.492  0.00  0.00     0.126 C 
ATOM     27  O           0     134.754 136.422 143.155  0.00  0.00    -0.266 OA
ENDBRANCH  24  25
ENDBRANCH  23  24
ENDBRANCH   6  23
BRANCH  19  28
ATOM     28  O           0     137.220 129.437 146.633  0.00  0.00    -0.362 OA
ATOM     29  H           0     138.006 128.875 146.658  0.00  0.00     0.213 HD
ENDBRANCH  19  28
BRANCH  19  30
ATOM     30  O           0     137.520 130.943 144.849  0.00  0.00    -0.362 OA
ATOM     31  H           0     136.585 131.127 144.683  0.00  0.00     0.213 HD
ENDBRANCH  19  30
TORSDOF 5
ENDMDL
