# created with PyMOL 2.3.4
@<TRIPOS>MOLECULE
ligand_out_0001
31 33 1                 
SMALL
USER_CHARGES
@<TRIPOS>ATOM
1	   N	135.567	136.646	143.311	N.3	1	UNK0	-0.235	
2	   N	134.101	134.808	143.316	N.3	1	UNK0	-0.218	
3	   N	134.166	132.244	145.030	N.3	1	UNK0	-0.216	
4	   N	134.935	131.722	147.207	N.3	1	UNK0	-0.235	
5	   N	136.262	132.884	145.630	N.3	1	UNK0	-0.191	
6	   N	136.358	134.502	143.830	N.3	1	UNK0	-0.179	
7	   C	135.352	135.372	143.481	C.3	1	UNK0	0.672	
8	   C	134.018	133.413	142.893	C.3	1	UNK0	0.151	
9	   C	134.865	132.493	143.752	C.3	1	UNK0	0.180	
10	   C	135.111	132.251	146.027	C.3	1	UNK0	0.670	
11	   C	136.197	133.089	144.174	C.3	1	UNK0	0.217	
12	   C	137.801	134.783	143.873	C.3	1	UNK0	0.106	
13	   C	138.184	135.345	145.244	C.3	1	UNK0	0.033	
14	   C	138.522	133.440	143.631	C.3	1	UNK0	0.098	
15	   C	137.386	132.389	143.489	C.3	1	UNK0	0.210	
16	   C	134.492	133.307	141.442	C.2	1	UNK0	0.206	
17	   C	133.335	134.815	139.941	C.2	1	UNK0	0.254	
18	   C	133.291	134.895	138.437	C.3	1	UNK0	0.126	
19	   O	133.390	133.619	140.549	O.2	1	UNK0	-0.320	
20	   O	133.321	135.827	140.601	O.co2	1	UNK0	-0.266	
21	   O	137.730	131.176	144.162	O.2	1	UNK0	-0.362	
22	   O	137.097	132.140	142.111	O.2	1	UNK0	-0.362	
23	   H	134.835	137.232	143.061	 H	1	UNK0	0.174	
24	   H	136.457	137.010	143.439	 H	1	UNK0	0.174	
25	   H	134.095	131.290	147.423	 H	1	UNK0	0.174	
26	   H	135.646	131.762	147.866	 H	1	UNK0	0.174	
27	   H	133.297	135.326	143.478	 H	1	UNK0	0.178	
28	   H	133.214	132.100	145.144	 H	1	UNK0	0.178	
29	   H	136.995	133.147	146.208	 H	1	UNK0	0.180	
30	   H	137.777	130.485	143.488	 H	1	UNK0	0.213	
31	   H	137.756	131.506	141.797	 H	1	UNK0	0.213	
@<TRIPOS>BOND
1 1 7 1
2 1 23 1
3 1 24 1
4 2 8 1
5 2 27 1
6 3 10 1
7 3 28 1
8 4 25 1
9 4 26 1
10 5 29 1
11 6 12 1
12 2 7 1
13 6 7 1
14 8 9 1
15 8 16 1
16 3 9 1
17 9 11 1
18 4 10 1
19 5 10 1
20 5 11 1
21 6 11 1
22 11 15 1
23 12 13 1
24 12 14 1
25 14 15 1
26 15 21 2
27 15 22 2
28 16 19 2
29 17 18 1
30 17 20 2
31 17 19 2
32 21 30 1
33 22 31 1
@<TRIPOS>SUBSTRUCTURE
1	UNK0	1	GROUP	1 ****	UNK
