# created with PyMOL 2.3.4
@<TRIPOS>MOLECULE
ligand_out_0001
32 34 1                 
SMALL
USER_CHARGES
@<TRIPOS>ATOM
1	   N	134.993	132.173	146.693	N.3	1	UNK0	-0.235	
2	   N	136.447	133.908	146.051	N.3	1	UNK0	-0.218	
3	   N	136.163	135.930	143.745	N.3	1	UNK0	-0.216	
4	   N	134.336	136.932	142.624	N.3	1	UNK0	-0.235	
5	   N	134.494	134.597	142.971	N.3	1	UNK0	-0.191	
6	   N	135.169	132.801	144.445	N.3	1	UNK0	-0.183	
7	   N	139.973	130.754	146.765	N.pl3	1	UNK0	-0.337	
8	   C	135.511	132.929	145.766	C.3	1	UNK0	0.672	
9	   C	137.413	134.263	145.016	C.3	1	UNK0	0.151	
10	   C	136.757	134.577	143.686	C.3	1	UNK0	0.180	
11	   C	134.959	135.883	143.086	C.3	1	UNK0	0.670	
12	   C	135.580	133.677	143.346	C.3	1	UNK0	0.217	
13	   C	134.367	131.736	143.816	C.3	1	UNK0	0.150	
14	   C	135.096	131.446	142.481	C.3	1	UNK0	0.093	
15	   C	135.896	132.736	142.171	C.3	1	UNK0	0.209	
16	   C	138.382	133.095	144.823	C.2	1	UNK0	0.208	
17	   C	140.066	131.939	146.128	C.2	1	UNK0	0.362	
18	   C	141.125	129.850	146.804	C.3	1	UNK0	0.154	
19	   C	138.720	130.372	147.421	C.3	1	UNK0	0.154	
20	   O	139.007	132.769	146.092	O.2	1	UNK0	-0.302	
21	   O	141.105	132.255	145.585	O.co2	1	UNK0	-0.238	
22	   O	135.461	133.309	140.936	O.2	1	UNK0	-0.362	
23	   O	137.297	132.453	142.124	O.2	1	UNK0	-0.362	
24	   H	135.261	132.288	147.618	 H	1	UNK0	0.174	
25	   H	134.335	131.499	146.458	 H	1	UNK0	0.174	
26	   H	134.722	137.814	142.739	 H	1	UNK0	0.174	
27	   H	133.487	136.828	142.167	 H	1	UNK0	0.174	
28	   H	136.460	134.347	146.917	 H	1	UNK0	0.178	
29	   H	136.553	136.709	144.171	 H	1	UNK0	0.178	
30	   H	133.602	134.339	142.690	 H	1	UNK0	0.180	
31	   H	135.356	132.578	140.312	 H	1	UNK0	0.213	
32	   H	137.629	132.826	141.297	 H	1	UNK0	0.213	
@<TRIPOS>BOND
1 1 8 1
2 1 24 1
3 1 25 1
4 2 9 1
5 2 28 1
6 3 11 1
7 3 29 1
8 4 26 1
9 4 27 1
10 5 30 1
11 6 13 1
12 7 18 1
13 7 19 1
14 2 8 1
15 6 8 1
16 9 10 1
17 9 16 1
18 3 10 1
19 10 12 1
20 4 11 1
21 5 11 1
22 5 12 1
23 6 12 1
24 12 15 1
25 13 14 1
26 14 15 1
27 15 22 2
28 15 23 2
29 16 20 2
30 7 17 1
31 17 21 2
32 17 20 2
33 22 31 1
34 23 32 1
@<TRIPOS>SUBSTRUCTURE
1	UNK0	1	GROUP	1 ****	UNK
