# created with PyMOL 2.3.4
@<TRIPOS>MOLECULE
ligand_out_0001
33 35 1                 
SMALL
USER_CHARGES
@<TRIPOS>ATOM
1	   N	131.667	132.120	134.962	N.3	1	UNK0	-0.235	
2	   N	131.237	134.294	135.747	N.3	1	UNK0	-0.218	
3	   N	131.114	136.958	134.194	N.3	1	UNK0	-0.216	
4	   N	130.519	137.564	131.986	N.3	1	UNK0	-0.235	
5	   N	132.035	135.811	132.462	N.3	1	UNK0	-0.191	
6	   N	132.647	133.971	133.913	N.3	1	UNK0	-0.179	
7	   N	133.533	136.051	139.468	N.pl3	1	UNK0	-0.346	
8	   C	131.844	133.408	134.875	C.3	1	UNK0	0.672	
9	   C	131.910	135.559	136.029	C.3	1	UNK0	0.151	
10	   C	132.308	136.301	134.768	C.3	1	UNK0	0.180	
11	   C	131.182	136.822	132.828	C.3	1	UNK0	0.670	
12	   C	132.803	135.402	133.647	C.3	1	UNK0	0.217	
13	   C	133.560	133.273	132.997	C.3	1	UNK0	0.106	
14	   C	132.810	132.851	131.731	C.3	1	UNK0	0.033	
15	   C	134.681	134.272	132.638	C.3	1	UNK0	0.098	
16	   C	134.312	135.582	133.387	C.3	1	UNK0	0.210	
17	   C	133.168	135.277	136.852	C.2	1	UNK0	0.208	
18	   C	132.962	134.854	139.231	C.2	1	UNK0	0.358	
19	   O	132.833	134.408	137.967	O.2	1	UNK0	-0.302	
20	   O	132.561	134.177	140.157	O.co2	1	UNK0	-0.239	
21	   O	134.560	136.724	132.564	O.2	1	UNK0	-0.362	
22	   O	135.027	135.680	134.621	O.2	1	UNK0	-0.362	
23	   H	131.095	131.754	135.655	 H	1	UNK0	0.174	
24	   H	132.103	131.526	134.331	 H	1	UNK0	0.174	
25	   H	129.931	138.263	132.312	 H	1	UNK0	0.174	
26	   H	130.613	137.415	131.032	 H	1	UNK0	0.174	
27	   H	130.386	134.081	136.160	 H	1	UNK0	0.178	
28	   H	130.410	137.403	134.691	 H	1	UNK0	0.178	
29	   H	132.118	135.434	131.572	 H	1	UNK0	0.180	
30	   H	133.853	136.591	138.728	 H	1	UNK0	0.161	
31	   H	133.625	136.372	140.379	 H	1	UNK0	0.161	
32	   H	134.699	137.472	133.159	 H	1	UNK0	0.213	
33	   H	135.967	135.706	134.398	 H	1	UNK0	0.213	
@<TRIPOS>BOND
1 1 8 1
2 1 23 1
3 1 24 1
4 2 9 1
5 2 27 1
6 3 11 1
7 3 28 1
8 4 25 1
9 4 26 1
10 5 29 1
11 6 13 1
12 7 30 1
13 7 31 1
14 2 8 1
15 6 8 1
16 9 10 1
17 9 17 1
18 3 10 1
19 10 12 1
20 4 11 1
21 5 11 1
22 5 12 1
23 6 12 1
24 12 16 1
25 13 14 1
26 13 15 1
27 15 16 1
28 16 21 2
29 16 22 2
30 17 19 2
31 7 18 1
32 18 20 2
33 18 19 2
34 21 32 1
35 22 33 1
@<TRIPOS>SUBSTRUCTURE
1	UNK0	1	GROUP	1 ****	UNK
