MODEL 1
REMARK VINA RESULT:      -7.1      0.000      0.000
REMARK  5 active torsions:
REMARK  status: ('A' for Active; 'I' for Inactive)
REMARK    1  A    between atoms: C_6  and  C_7 
REMARK    2  A    between atoms: C_7  and  O_8 
REMARK    3  A    between atoms: O_8  and  C_9 
REMARK       I    between atoms: C_9  and  N_10 
REMARK    4  A    between atoms: C_24  and  O_25 
REMARK    5  A    between atoms: C_24  and  O_26 
ROOT
ATOM      1  N           0     131.667 132.120 134.962  0.00  0.00    -0.235 N 
ATOM      2  H           0     131.095 131.754 135.655  0.00  0.00     0.174 HD
ATOM      3  H           0     132.103 131.526 134.331  0.00  0.00     0.174 HD
ATOM      4  C           0     131.844 133.408 134.875  0.00  0.00     0.672 C 
ATOM      5  N           0     131.237 134.294 135.747  0.00  0.00    -0.218 N 
ATOM      6  C           0     131.910 135.559 136.029  0.00  0.00     0.151 C 
ATOM      7  C           0     132.308 136.301 134.768  0.00  0.00     0.180 C 
ATOM      8  N           0     131.114 136.958 134.194  0.00  0.00    -0.216 N 
ATOM      9  C           0     131.182 136.822 132.828  0.00  0.00     0.670 C 
ATOM     10  N           0     130.519 137.564 131.986  0.00  0.00    -0.235 N 
ATOM     11  H           0     129.931 138.263 132.312  0.00  0.00     0.174 HD
ATOM     12  H           0     130.613 137.415 131.032  0.00  0.00     0.174 HD
ATOM     13  C           0     132.803 135.402 133.647  0.00  0.00     0.217 C 
ATOM     14  N           0     132.035 135.811 132.462  0.00  0.00    -0.191 N 
ATOM     15  N           0     132.647 133.971 133.913  0.00  0.00    -0.179 N 
ATOM     16  C           0     133.560 133.273 132.997  0.00  0.00     0.106 C 
ATOM     17  C           0     132.810 132.851 131.731  0.00  0.00     0.033 C 
ATOM     18  C           0     134.681 134.272 132.638  0.00  0.00     0.098 C 
ATOM     19  C           0     134.312 135.582 133.387  0.00  0.00     0.210 C 
ATOM     20  H           0     130.386 134.081 136.160  0.00  0.00     0.178 HD
ATOM     21  H           0     130.410 137.403 134.691  0.00  0.00     0.178 HD
ATOM     22  H           0     132.118 135.434 131.572  0.00  0.00     0.180 HD
ENDROOT
BRANCH   6  23
ATOM     23  C           0     133.168 135.277 136.852  0.00  0.00     0.208 C 
BRANCH  23  24
ATOM     24  O           0     132.833 134.408 137.967  0.00  0.00    -0.302 OA
BRANCH  24  25
ATOM     25  C           0     132.962 134.854 139.231  0.00  0.00     0.358 C 
ATOM     26  N           0     133.533 136.051 139.468  0.00  0.00    -0.346 N 
ATOM     27  H           0     133.853 136.591 138.728  0.00  0.00     0.161 HD
ATOM     28  H           0     133.625 136.372 140.379  0.00  0.00     0.161 HD
ATOM     29  O           0     132.561 134.177 140.157  0.00  0.00    -0.239 OA
ENDBRANCH  24  25
ENDBRANCH  23  24
ENDBRANCH   6  23
BRANCH  19  30
ATOM     30  O           0     134.560 136.724 132.564  0.00  0.00    -0.362 OA
ATOM     31  H           0     134.699 137.472 133.159  0.00  0.00     0.213 HD
ENDBRANCH  19  30
BRANCH  19  32
ATOM     32  O           0     135.027 135.680 134.621  0.00  0.00    -0.362 OA
ATOM     33  H           0     135.967 135.706 134.398  0.00  0.00     0.213 HD
ENDBRANCH  19  32
TORSDOF 5
ENDMDL
MODEL 2
REMARK VINA RESULT:      -7.0      8.502     13.169
REMARK  5 active torsions:
REMARK  status: ('A' for Active; 'I' for Inactive)
REMARK    1  A    between atoms: C_6  and  C_7 
REMARK    2  A    between atoms: C_7  and  O_8 
REMARK    3  A    between atoms: O_8  and  C_9 
REMARK       I    between atoms: C_9  and  N_10 
REMARK    4  A    between atoms: C_24  and  O_25 
REMARK    5  A    between atoms: C_24  and  O_26 
ROOT
ATOM      1  N           0     139.541 130.576 146.121  0.00  0.00    -0.235 N 
ATOM      2  H           0     140.274 130.702 145.498  0.00  0.00     0.174 HD
ATOM      3  H           0     139.586 129.870 146.786  0.00  0.00     0.174 HD
ATOM      4  C           0     138.500 131.359 146.071  0.00  0.00     0.672 C 
ATOM      5  N           0     138.394 132.383 145.146  0.00  0.00    -0.218 N 
ATOM      6  C           0     137.061 132.784 144.705  0.00  0.00     0.151 C 
ATOM      7  C           0     136.125 133.066 145.865  0.00  0.00     0.180 C 
ATOM      8  N           0     136.440 134.396 146.430  0.00  0.00    -0.216 N 
ATOM      9  C           0     136.342 134.300 147.797  0.00  0.00     0.670 C 
ATOM     10  N           0     136.196 135.321 148.594  0.00  0.00    -0.235 N 
ATOM     11  H           0     136.150 136.218 148.229  0.00  0.00     0.174 HD
ATOM     12  H           0     136.133 135.183 149.551  0.00  0.00     0.174 HD
ATOM     13  C           0     136.292 132.121 147.043  0.00  0.00     0.217 C 
ATOM     14  N           0     136.417 132.995 148.219  0.00  0.00    -0.191 N 
ATOM     15  N           0     137.438 131.217 146.929  0.00  0.00    -0.179 N 
ATOM     16  C           0     137.191 130.109 147.863  0.00  0.00     0.106 C 
ATOM     17  C           0     137.879 130.389 149.201  0.00  0.00     0.033 C 
ATOM     18  C           0     135.663 130.027 148.063  0.00  0.00     0.098 C 
ATOM     19  C           0     135.078 131.185 147.207  0.00  0.00     0.210 C 
ATOM     20  H           0     139.186 132.823 144.800  0.00  0.00     0.178 HD
ATOM     21  H           0     136.673 135.192 145.927  0.00  0.00     0.178 HD
ATOM     22  H           0     136.529 132.702 149.137  0.00  0.00     0.180 HD
ENDROOT
BRANCH   6  23
ATOM     23  C           0     136.465 131.663 143.852  0.00  0.00     0.208 C 
BRANCH  23  24
ATOM     24  O           0     135.190 132.094 143.307  0.00  0.00    -0.302 OA
BRANCH  24  25
ATOM     25  C           0     135.147 133.094 142.406  0.00  0.00     0.358 C 
ATOM     26  N           0     135.844 132.997 141.257  0.00  0.00    -0.346 N 
ATOM     27  H           0     136.379 132.207 141.080  0.00  0.00     0.161 HD
ATOM     28  H           0     135.812 133.718 140.608  0.00  0.00     0.161 HD
ATOM     29  O           0     134.477 134.083 142.629  0.00  0.00    -0.239 OA
ENDBRANCH  24  25
ENDBRANCH  23  24
ENDBRANCH   6  23
BRANCH  19  30
ATOM     30  O           0     134.012 131.839 147.899  0.00  0.00    -0.362 OA
ATOM     31  H           0     133.885 132.695 147.468  0.00  0.00     0.213 HD
ENDBRANCH  19  30
BRANCH  19  32
ATOM     32  O           0     134.639 130.703 145.935  0.00  0.00    -0.362 OA
ATOM     33  H           0     134.509 129.749 146.027  0.00  0.00     0.213 HD
ENDBRANCH  19  32
TORSDOF 5
ENDMDL
MODEL 3
REMARK VINA RESULT:      -6.9     12.341     14.258
REMARK  5 active torsions:
REMARK  status: ('A' for Active; 'I' for Inactive)
REMARK    1  A    between atoms: C_6  and  C_7 
REMARK    2  A    between atoms: C_7  and  O_8 
REMARK    3  A    between atoms: O_8  and  C_9 
REMARK       I    between atoms: C_9  and  N_10 
REMARK    4  A    between atoms: C_24  and  O_25 
REMARK    5  A    between atoms: C_24  and  O_26 
ROOT
ATOM      1  N           0     134.191 131.980 149.304  0.00  0.00    -0.235 N 
ATOM      2  H           0     133.747 131.645 150.099  0.00  0.00     0.174 HD
ATOM      3  H           0     134.044 132.894 149.015  0.00  0.00     0.174 HD
ATOM      4  C           0     134.991 131.204 148.629  0.00  0.00     0.672 C 
ATOM      5  N           0     135.238 129.895 149.006  0.00  0.00    -0.218 N 
ATOM      6  C           0     135.576 128.926 147.967  0.00  0.00     0.151 C 
ATOM      7  C           0     136.702 129.403 147.070  0.00  0.00     0.180 C 
ATOM      8  N           0     137.990 129.234 147.776  0.00  0.00    -0.216 N 
ATOM      9  C           0     138.765 130.333 147.495  0.00  0.00     0.670 C 
ATOM     10  N           0     140.060 130.370 147.637  0.00  0.00    -0.235 N 
ATOM     11  H           0     140.536 129.589 147.960  0.00  0.00     0.174 HD
ATOM     12  H           0     140.548 131.180 147.420  0.00  0.00     0.174 HD
ATOM     13  C           0     136.655 130.888 146.749  0.00  0.00     0.217 C 
ATOM     14  N           0     138.007 131.386 147.046  0.00  0.00    -0.191 N 
ATOM     15  N           0     135.639 131.631 147.496  0.00  0.00    -0.179 N 
ATOM     16  C           0     135.413 132.884 146.761  0.00  0.00     0.106 C 
ATOM     17  C           0     136.282 133.999 147.347  0.00  0.00     0.033 C 
ATOM     18  C           0     135.812 132.619 145.294  0.00  0.00     0.098 C 
ATOM     19  C           0     136.310 131.147 145.268  0.00  0.00     0.210 C 
ATOM     20  H           0     135.189 129.629 149.937  0.00  0.00     0.178 HD
ATOM     21  H           0     138.242 128.483 148.337  0.00  0.00     0.178 HD
ATOM     22  H           0     138.312 132.300 146.939  0.00  0.00     0.180 HD
ENDROOT
BRANCH   6  23
ATOM     23  C           0     134.336 128.671 147.108  0.00  0.00     0.208 C 
BRANCH  23  24
ATOM     24  O           0     133.237 128.249 147.957  0.00  0.00    -0.302 OA
BRANCH  24  25
ATOM     25  C           0     132.304 127.402 147.481  0.00  0.00     0.358 C 
ATOM     26  N           0     132.665 126.180 147.043  0.00  0.00    -0.346 N 
ATOM     27  H           0     133.596 125.910 147.070  0.00  0.00     0.161 HD
ATOM     28  H           0     131.992 125.570 146.700  0.00  0.00     0.161 HD
ATOM     29  O           0     131.138 127.740 147.448  0.00  0.00    -0.239 OA
ENDBRANCH  24  25
ENDBRANCH  23  24
ENDBRANCH   6  23
BRANCH  19  30
ATOM     30  O           0     137.466 131.017 144.439  0.00  0.00    -0.362 OA
ATOM     31  H           0     137.151 130.787 143.555  0.00  0.00     0.213 HD
ENDBRANCH  19  30
BRANCH  19  32
ATOM     32  O           0     135.271 130.268 144.833  0.00  0.00    -0.362 OA
ATOM     33  H           0     135.678 129.403 144.689  0.00  0.00     0.213 HD
ENDBRANCH  19  32
TORSDOF 5
ENDMDL
MODEL 4
REMARK VINA RESULT:      -6.9      9.744     13.627
REMARK  5 active torsions:
REMARK  status: ('A' for Active; 'I' for Inactive)
REMARK    1  A    between atoms: C_6  and  C_7 
REMARK    2  A    between atoms: C_7  and  O_8 
REMARK    3  A    between atoms: O_8  and  C_9 
REMARK       I    between atoms: C_9  and  N_10 
REMARK    4  A    between atoms: C_24  and  O_25 
REMARK    5  A    between atoms: C_24  and  O_26 
ROOT
ATOM      1  N           0     135.966 134.468 147.016  0.00  0.00    -0.235 N 
ATOM      2  H           0     135.414 135.106 146.537  0.00  0.00     0.174 HD
ATOM      3  H           0     136.562 134.774 147.718  0.00  0.00     0.174 HD
ATOM      4  C           0     135.902 133.201 146.722  0.00  0.00     0.672 C 
ATOM      5  N           0     135.063 132.716 145.734  0.00  0.00    -0.218 N 
ATOM      6  C           0     135.456 131.501 145.025  0.00  0.00     0.151 C 
ATOM      7  C           0     135.817 130.369 145.966  0.00  0.00     0.180 C 
ATOM      8  N           0     134.576 129.767 146.500  0.00  0.00    -0.216 N 
ATOM      9  C           0     134.790 129.482 147.827  0.00  0.00     0.670 C 
ATOM     10  N           0     134.077 128.638 148.518  0.00  0.00    -0.235 N 
ATOM     11  H           0     133.340 128.167 148.098  0.00  0.00     0.174 HD
ATOM     12  H           0     134.282 128.483 149.453  0.00  0.00     0.174 HD
ATOM     13  C           0     136.572 130.810 147.209  0.00  0.00     0.217 C 
ATOM     14  N           0     135.849 130.195 148.333  0.00  0.00    -0.191 N 
ATOM     15  N           0     136.667 132.261 147.369  0.00  0.00    -0.179 N 
ATOM     16  C           0     137.774 132.507 148.304  0.00  0.00     0.106 C 
ATOM     17  C           0     137.234 132.649 149.729  0.00  0.00     0.033 C 
ATOM     18  C           0     138.712 131.285 148.215  0.00  0.00     0.098 C 
ATOM     19  C           0     138.036 130.327 147.195  0.00  0.00     0.210 C 
ATOM     20  H           0     134.234 133.172 145.519  0.00  0.00     0.178 HD
ATOM     21  H           0     133.759 129.603 146.003  0.00  0.00     0.178 HD
ATOM     22  H           0     136.082 130.275 149.271  0.00  0.00     0.180 HD
ENDROOT
BRANCH   6  23
ATOM     23  C           0     136.666 131.814 144.142  0.00  0.00     0.208 C 
BRANCH  23  24
ATOM     24  O           0     136.280 132.756 143.107  0.00  0.00    -0.302 OA
BRANCH  24  25
ATOM     25  C           0     136.799 133.999 143.100  0.00  0.00     0.358 C 
ATOM     26  N           0     137.853 134.285 142.311  0.00  0.00    -0.346 N 
ATOM     27  H           0     138.239 133.595 141.749  0.00  0.00     0.161 HD
ATOM     28  H           0     138.226 135.181 142.307  0.00  0.00     0.161 HD
ATOM     29  O           0     136.315 134.862 143.805  0.00  0.00    -0.239 OA
ENDBRANCH  24  25
ENDBRANCH  23  24
ENDBRANCH   6  23
BRANCH  19  30
ATOM     30  O           0     138.136 128.970 147.632  0.00  0.00    -0.362 OA
ATOM     31  H           0     137.314 128.765 148.096  0.00  0.00     0.213 HD
ENDBRANCH  19  30
BRANCH  19  32
ATOM     32  O           0     138.606 130.486 145.895  0.00  0.00    -0.362 OA
ATOM     33  H           0     138.588 129.616 145.473  0.00  0.00     0.213 HD
ENDBRANCH  19  32
TORSDOF 5
ENDMDL
MODEL 5
REMARK VINA RESULT:      -6.8      2.220      3.196
REMARK  5 active torsions:
REMARK  status: ('A' for Active; 'I' for Inactive)
REMARK    1  A    between atoms: C_6  and  C_7 
REMARK    2  A    between atoms: C_7  and  O_8 
REMARK    3  A    between atoms: O_8  and  C_9 
REMARK       I    between atoms: C_9  and  N_10 
REMARK    4  A    between atoms: C_24  and  O_25 
REMARK    5  A    between atoms: C_24  and  O_26 
ROOT
ATOM      1  N           0     133.903 132.388 132.764  0.00  0.00    -0.235 N 
ATOM      2  H           0     133.769 131.573 132.256  0.00  0.00     0.174 HD
ATOM      3  H           0     134.798 132.743 132.883  0.00  0.00     0.174 HD
ATOM      4  C           0     132.881 133.010 133.281  0.00  0.00     0.672 C 
ATOM      5  N           0     131.586 132.547 133.133  0.00  0.00    -0.218 N 
ATOM      6  C           0     130.616 132.853 134.181  0.00  0.00     0.151 C 
ATOM      7  C           0     130.576 134.329 134.524  0.00  0.00     0.180 C 
ATOM      8  N           0     129.816 135.050 133.480  0.00  0.00    -0.216 N 
ATOM      9  C           0     130.461 136.239 133.242  0.00  0.00     0.670 C 
ATOM     10  N           0     129.907 137.271 132.669  0.00  0.00    -0.235 N 
ATOM     11  H           0     128.982 137.227 132.381  0.00  0.00     0.174 HD
ATOM     12  H           0     130.420 138.082 132.532  0.00  0.00     0.174 HD
ATOM     13  C           0     131.936 135.006 134.516  0.00  0.00     0.217 C 
ATOM     14  N           0     131.761 136.206 133.683  0.00  0.00    -0.191 N 
ATOM     15  N           0     133.022 134.165 134.012  0.00  0.00    -0.179 N 
ATOM     16  C           0     134.275 134.764 134.493  0.00  0.00     0.106 C 
ATOM     17  C           0     134.854 135.695 133.425  0.00  0.00     0.033 C 
ATOM     18  C           0     133.924 135.571 135.762  0.00  0.00     0.098 C 
ATOM     19  C           0     132.388 135.409 135.934  0.00  0.00     0.210 C 
ATOM     20  H           0     131.329 132.032 132.352  0.00  0.00     0.178 HD
ATOM     21  H           0     129.008 134.739 133.042  0.00  0.00     0.178 HD
ATOM     22  H           0     132.445 136.864 133.483  0.00  0.00     0.180 HD
ENDROOT
BRANCH   6  23
ATOM     23  C           0     130.982 132.064 135.439  0.00  0.00     0.208 C 
BRANCH  23  24
ATOM     24  O           0     130.158 132.511 136.548  0.00  0.00    -0.302 OA
BRANCH  24  25
ATOM     25  C           0     130.284 131.933 137.757  0.00  0.00     0.358 C 
ATOM     26  N           0     130.892 132.595 138.762  0.00  0.00    -0.346 N 
ATOM     27  H           0     131.239 133.489 138.613  0.00  0.00     0.161 HD
ATOM     28  H           0     130.982 132.178 139.633  0.00  0.00     0.161 HD
ATOM     29  O           0     129.850 130.813 137.943  0.00  0.00    -0.239 OA
ENDBRANCH  24  25
ENDBRANCH  23  24
ENDBRANCH   6  23
BRANCH  19  30
ATOM     30  O           0     131.790 136.644 136.335  0.00  0.00    -0.362 OA
ATOM     31  H           0     131.610 136.572 137.281  0.00  0.00     0.213 HD
ENDBRANCH  19  30
BRANCH  19  32
ATOM     32  O           0     132.089 134.372 136.870  0.00  0.00    -0.362 OA
ATOM     33  H           0     132.934 134.062 137.223  0.00  0.00     0.213 HD
ENDBRANCH  19  32
TORSDOF 5
ENDMDL
MODEL 6
REMARK VINA RESULT:      -6.7      2.761      4.935
REMARK  5 active torsions:
REMARK  status: ('A' for Active; 'I' for Inactive)
REMARK    1  A    between atoms: C_6  and  C_7 
REMARK    2  A    between atoms: C_7  and  O_8 
REMARK    3  A    between atoms: O_8  and  C_9 
REMARK       I    between atoms: C_9  and  N_10 
REMARK    4  A    between atoms: C_24  and  O_25 
REMARK    5  A    between atoms: C_24  and  O_26 
ROOT
ATOM      1  N           0     131.961 137.105 132.193  0.00  0.00    -0.235 N 
ATOM      2  H           0     131.194 137.695 132.135  0.00  0.00     0.174 HD
ATOM      3  H           0     132.631 137.109 131.491  0.00  0.00     0.174 HD
ATOM      4  C           0     132.096 136.310 133.217  0.00  0.00     0.672 C 
ATOM      5  N           0     131.172 136.272 134.246  0.00  0.00    -0.218 N 
ATOM      6  C           0     131.003 135.022 134.982  0.00  0.00     0.151 C 
ATOM      7  C           0     132.319 134.457 135.479  0.00  0.00     0.180 C 
ATOM      8  N           0     132.750 135.211 136.676  0.00  0.00    -0.216 N 
ATOM      9  C           0     134.110 135.386 136.590  0.00  0.00     0.670 C 
ATOM     10  N           0     134.876 135.676 137.604  0.00  0.00    -0.235 N 
ATOM     11  H           0     134.491 135.783 138.488  0.00  0.00     0.174 HD
ATOM     12  H           0     135.831 135.786 137.475  0.00  0.00     0.174 HD
ATOM     13  C           0     133.475 134.626 134.508  0.00  0.00     0.217 C 
ATOM     14  N           0     134.562 135.216 135.305  0.00  0.00    -0.191 N 
ATOM     15  N           0     133.163 135.454 133.342  0.00  0.00    -0.179 N 
ATOM     16  C           0     134.174 135.139 132.322  0.00  0.00     0.106 C 
ATOM     17  C           0     135.325 136.145 132.399  0.00  0.00     0.033 C 
ATOM     18  C           0     134.692 133.719 132.632  0.00  0.00     0.098 C 
ATOM     19  C           0     133.929 133.278 133.912  0.00  0.00     0.210 C 
ATOM     20  H           0     130.650 137.058 134.474  0.00  0.00     0.178 HD
ATOM     21  H           0     132.176 135.526 137.393  0.00  0.00     0.178 HD
ATOM     22  H           0     135.447 135.443 134.980  0.00  0.00     0.180 HD
ENDROOT
BRANCH   6  23
ATOM     23  C           0     130.341 133.994 134.063  0.00  0.00     0.208 C 
BRANCH  23  24
ATOM     24  O           0     129.119 134.552 133.511  0.00  0.00    -0.302 OA
BRANCH  24  25
ATOM     25  C           0     128.736 134.231 132.261  0.00  0.00     0.358 C 
ATOM     26  N           0     127.813 133.270 132.065  0.00  0.00    -0.346 N 
ATOM     27  H           0     127.425 132.808 132.825  0.00  0.00     0.161 HD
ATOM     28  H           0     127.537 133.039 131.164  0.00  0.00     0.161 HD
ATOM     29  O           0     129.223 134.810 131.310  0.00  0.00    -0.239 OA
ENDBRANCH  24  25
ENDBRANCH  23  24
ENDBRANCH   6  23
BRANCH  19  30
ATOM     30  O           0     134.800 132.586 134.809  0.00  0.00    -0.362 OA
ATOM     31  H           0     135.531 132.241 134.277  0.00  0.00     0.213 HD
ENDBRANCH  19  30
BRANCH  19  32
ATOM     32  O           0     132.799 132.471 133.576  0.00  0.00    -0.362 OA
ATOM     33  H           0     132.800 131.721 134.187  0.00  0.00     0.213 HD
ENDBRANCH  19  32
TORSDOF 5
ENDMDL
MODEL 7
REMARK VINA RESULT:      -6.7      8.724     12.906
REMARK  5 active torsions:
REMARK  status: ('A' for Active; 'I' for Inactive)
REMARK    1  A    between atoms: C_6  and  C_7 
REMARK    2  A    between atoms: C_7  and  O_8 
REMARK    3  A    between atoms: O_8  and  C_9 
REMARK       I    between atoms: C_9  and  N_10 
REMARK    4  A    between atoms: C_24  and  O_25 
REMARK    5  A    between atoms: C_24  and  O_26 
ROOT
ATOM      1  N           0     134.443 130.921 144.484  0.00  0.00    -0.235 N 
ATOM      2  H           0     134.244 130.788 143.543  0.00  0.00     0.174 HD
ATOM      3  H           0     133.789 130.675 145.157  0.00  0.00     0.174 HD
ATOM      4  C           0     135.590 131.424 144.843  0.00  0.00     0.672 C 
ATOM      5  N           0     136.557 131.783 143.920  0.00  0.00    -0.218 N 
ATOM      6  C           0     137.478 132.862 144.266  0.00  0.00     0.151 C 
ATOM      7  C           0     138.136 132.655 145.617  0.00  0.00     0.180 C 
ATOM      8  N           0     139.215 131.652 145.482  0.00  0.00    -0.216 N 
ATOM      9  C           0     139.178 130.852 146.599  0.00  0.00     0.670 C 
ATOM     10  N           0     140.172 130.110 146.999  0.00  0.00    -0.235 N 
ATOM     11  H           0     141.003 130.099 146.499  0.00  0.00     0.174 HD
ATOM     12  H           0     140.081 129.567 147.798  0.00  0.00     0.174 HD
ATOM     13  C           0     137.217 132.063 146.672  0.00  0.00     0.217 C 
ATOM     14  N           0     137.967 130.931 147.239  0.00  0.00    -0.191 N 
ATOM     15  N           0     135.915 131.634 146.161  0.00  0.00    -0.179 N 
ATOM     16  C           0     135.020 131.536 147.323  0.00  0.00     0.106 C 
ATOM     17  C           0     134.995 130.098 147.845  0.00  0.00     0.033 C 
ATOM     18  C           0     135.590 132.480 148.404  0.00  0.00     0.098 C 
ATOM     19  C           0     136.880 133.081 147.780  0.00  0.00     0.210 C 
ATOM     20  H           0     136.621 131.329 143.066  0.00  0.00     0.178 HD
ATOM     21  H           0     139.835 131.573 144.741  0.00  0.00     0.178 HD
ATOM     22  H           0     137.660 130.343 147.947  0.00  0.00     0.180 HD
ENDROOT
BRANCH   6  23
ATOM     23  C           0     136.706 134.182 144.291  0.00  0.00     0.208 C 
BRANCH  23  24
ATOM     24  O           0     136.121 134.427 142.985  0.00  0.00    -0.302 OA
BRANCH  24  25
ATOM     25  C           0     134.798 134.646 142.870  0.00  0.00     0.358 C 
ATOM     26  N           0     134.342 135.884 142.592  0.00  0.00    -0.346 N 
ATOM     27  H           0     134.967 136.617 142.477  0.00  0.00     0.161 HD
ATOM     28  H           0     133.388 136.042 142.509  0.00  0.00     0.161 HD
ATOM     29  O           0     134.015 133.729 143.015  0.00  0.00    -0.239 OA
ENDBRANCH  24  25
ENDBRANCH  23  24
ENDBRANCH   6  23
BRANCH  19  30
ATOM     30  O           0     137.927 133.153 148.750  0.00  0.00    -0.362 OA
ATOM     31  H           0     138.287 134.049 148.704  0.00  0.00     0.213 HD
ENDBRANCH  19  30
BRANCH  19  32
ATOM     32  O           0     136.618 134.368 147.216  0.00  0.00    -0.362 OA
ATOM     33  H           0     135.799 134.290 146.709  0.00  0.00     0.213 HD
ENDBRANCH  19  32
TORSDOF 5
ENDMDL
MODEL 8
REMARK VINA RESULT:      -6.6      4.236      6.201
REMARK  5 active torsions:
REMARK  status: ('A' for Active; 'I' for Inactive)
REMARK    1  A    between atoms: C_6  and  C_7 
REMARK    2  A    between atoms: C_7  and  O_8 
REMARK    3  A    between atoms: O_8  and  C_9 
REMARK       I    between atoms: C_9  and  N_10 
REMARK    4  A    between atoms: C_24  and  O_25 
REMARK    5  A    between atoms: C_24  and  O_26 
ROOT
ATOM      1  N           0     128.908 132.763 130.892  0.00  0.00    -0.235 N 
ATOM      2  H           0     128.011 132.495 130.638  0.00  0.00     0.174 HD
ATOM      3  H           0     129.370 133.450 130.386  0.00  0.00     0.174 HD
ATOM      4  C           0     129.490 132.206 131.916  0.00  0.00     0.672 C 
ATOM      5  N           0     128.870 131.227 132.672  0.00  0.00    -0.218 N 
ATOM      6  C           0     129.705 130.232 133.339  0.00  0.00     0.151 C 
ATOM      7  C           0     130.816 130.860 134.159  0.00  0.00     0.180 C 
ATOM      8  N           0     130.253 131.373 135.426  0.00  0.00    -0.216 N 
ATOM      9  C           0     130.860 132.576 135.694  0.00  0.00     0.670 C 
ATOM     10  N           0     130.890 133.135 136.871  0.00  0.00    -0.235 N 
ATOM     11  H           0     130.465 132.700 137.626  0.00  0.00     0.174 HD
ATOM     12  H           0     131.337 133.987 136.991  0.00  0.00     0.174 HD
ATOM     13  C           0     131.445 132.086 133.518  0.00  0.00     0.217 C 
ATOM     14  N           0     131.433 133.115 134.568  0.00  0.00    -0.191 N 
ATOM     15  N           0     130.760 132.550 132.311  0.00  0.00    -0.179 N 
ATOM     16  C           0     131.717 133.398 131.586  0.00  0.00     0.106 C 
ATOM     17  C           0     131.500 134.867 131.957  0.00  0.00     0.033 C 
ATOM     18  C           0     133.128 132.947 132.019  0.00  0.00     0.098 C 
ATOM     19  C           0     132.892 131.817 133.059  0.00  0.00     0.210 C 
ATOM     20  H           0     127.904 131.203 132.757  0.00  0.00     0.178 HD
ATOM     21  H           0     129.577 130.939 135.971  0.00  0.00     0.178 HD
ATOM     22  H           0     131.773 134.019 134.482  0.00  0.00     0.180 HD
ENDROOT
BRANCH   6  23
ATOM     23  C           0     130.328 129.321 132.280  0.00  0.00     0.208 C 
BRANCH  23  24
ATOM     24  O           0     130.149 127.934 132.668  0.00  0.00    -0.302 OA
BRANCH  24  25
ATOM     25  C           0     131.207 127.203 133.068  0.00  0.00     0.358 C 
ATOM     26  N           0     131.058 125.890 133.333  0.00  0.00    -0.346 N 
ATOM     27  H           0     130.188 125.472 133.238  0.00  0.00     0.161 HD
ATOM     28  H           0     131.821 125.364 133.621  0.00  0.00     0.161 HD
ATOM     29  O           0     132.296 127.728 133.188  0.00  0.00    -0.239 OA
ENDBRANCH  24  25
ENDBRANCH  23  24
ENDBRANCH   6  23
BRANCH  19  30
ATOM     30  O           0     133.809 131.932 134.149  0.00  0.00    -0.362 OA
ATOM     31  H           0     134.141 132.839 134.140  0.00  0.00     0.213 HD
ENDBRANCH  19  30
BRANCH  19  32
ATOM     32  O           0     132.994 130.531 132.443  0.00  0.00    -0.362 OA
ATOM     33  H           0     132.687 130.633 131.532  0.00  0.00     0.213 HD
ENDBRANCH  19  32
TORSDOF 5
ENDMDL
MODEL 9
REMARK VINA RESULT:      -6.6      9.522     11.973
REMARK  5 active torsions:
REMARK  status: ('A' for Active; 'I' for Inactive)
REMARK    1  A    between atoms: C_6  and  C_7 
REMARK    2  A    between atoms: C_7  and  O_8 
REMARK    3  A    between atoms: O_8  and  C_9 
REMARK       I    between atoms: C_9  and  N_10 
REMARK    4  A    between atoms: C_24  and  O_25 
REMARK    5  A    between atoms: C_24  and  O_26 
ROOT
ATOM      1  N           0     139.072 130.776 145.774  0.00  0.00    -0.235 N 
ATOM      2  H           0     139.314 129.958 146.237  0.00  0.00     0.174 HD
ATOM      3  H           0     139.763 131.330 145.378  0.00  0.00     0.174 HD
ATOM      4  C           0     137.821 131.126 145.678  0.00  0.00     0.672 C 
ATOM      5  N           0     136.801 130.365 146.220  0.00  0.00    -0.218 N 
ATOM      6  C           0     135.580 131.044 146.647  0.00  0.00     0.151 C 
ATOM      7  C           0     135.007 131.943 145.569  0.00  0.00     0.180 C 
ATOM      8  N           0     134.304 131.112 144.567  0.00  0.00    -0.216 N 
ATOM      9  C           0     134.580 131.635 143.327  0.00  0.00     0.670 C 
ATOM     10  N           0     133.869 131.402 142.260  0.00  0.00    -0.235 N 
ATOM     11  H           0     133.090 130.826 142.312  0.00  0.00     0.174 HD
ATOM     12  H           0     134.119 131.803 141.414  0.00  0.00     0.174 HD
ATOM     13  C           0     136.054 132.685 144.756  0.00  0.00     0.217 C 
ATOM     14  N           0     135.697 132.434 143.352  0.00  0.00    -0.191 N 
ATOM     15  N           0     137.431 132.275 145.035  0.00  0.00    -0.179 N 
ATOM     16  C           0     138.297 133.359 144.550  0.00  0.00     0.106 C 
ATOM     17  C           0     138.772 133.053 143.128  0.00  0.00     0.033 C 
ATOM     18  C           0     137.445 134.646 144.556  0.00  0.00     0.098 C 
ATOM     19  C           0     136.038 134.200 145.042  0.00  0.00     0.210 C 
ATOM     20  H           0     136.894 129.404 146.314  0.00  0.00     0.178 HD
ATOM     21  H           0     133.749 130.338 144.752  0.00  0.00     0.178 HD
ATOM     22  H           0     136.166 132.776 142.575  0.00  0.00     0.180 HD
ENDROOT
BRANCH   6  23
ATOM     23  C           0     135.893 131.892 147.881  0.00  0.00     0.208 C 
BRANCH  23  24
ATOM     24  O           0     134.655 132.391 148.453  0.00  0.00    -0.302 OA
BRANCH  24  25
ATOM     25  C           0     133.874 131.576 149.186  0.00  0.00     0.358 C 
ATOM     26  N           0     132.533 131.654 149.082  0.00  0.00    -0.346 N 
ATOM     27  H           0     132.130 132.300 148.481  0.00  0.00     0.161 HD
ATOM     28  H           0     131.971 131.066 149.611  0.00  0.00     0.161 HD
ATOM     29  O           0     134.379 130.768 149.940  0.00  0.00    -0.239 OA
ENDBRANCH  24  25
ENDBRANCH  23  24
ENDBRANCH   6  23
BRANCH  19  30
ATOM     30  O           0     135.012 134.855 144.294  0.00  0.00    -0.362 OA
ATOM     31  H           0     135.455 135.388 143.621  0.00  0.00     0.213 HD
ENDBRANCH  19  30
BRANCH  19  32
ATOM     32  O           0     135.884 134.446 146.441  0.00  0.00    -0.362 OA
ATOM     33  H           0     136.745 134.736 146.771  0.00  0.00     0.213 HD
ENDBRANCH  19  32
TORSDOF 5
ENDMDL
