MODEL 1
REMARK VINA RESULT:      -8.6      0.000      0.000
REMARK  20 active torsions:
REMARK  status: ('A' for Active; 'I' for Inactive)
REMARK    1  A    between atoms: C_6  and  C_7 
REMARK    2  A    between atoms: C_7  and  O_8 
REMARK    3  A    between atoms: O_8  and  C_9 
REMARK       I    between atoms: C_9  and  N_10 
REMARK    4  A    between atoms: N_10  and  C_11 
REMARK    5  A    between atoms: C_11  and  C_12 
REMARK    6  A    between atoms: C_12  and  N_13 
REMARK       I    between atoms: N_13  and  C_14 
REMARK    7  A    between atoms: C_14  and  C_15 
REMARK    8  A    between atoms: C_15  and  C_16 
REMARK    9  A    between atoms: C_16  and  N_17 
REMARK   10  A    between atoms: C_20  and  C_21 
REMARK   11  A    between atoms: C_21  and  C_22 
REMARK   12  A    between atoms: C_22  and  C_23 
REMARK   13  A    between atoms: C_23  and  C_24 
REMARK   14  A    between atoms: C_24  and  C_25 
REMARK   15  A    between atoms: C_25  and  C_26 
REMARK   16  A    between atoms: C_26  and  C_27 
REMARK   17  A    between atoms: C_27  and  C_28 
REMARK   18  A    between atoms: C_28  and  C_29 
REMARK   19  A    between atoms: C_48  and  O_49 
REMARK   20  A    between atoms: C_48  and  O_50 
ROOT
ATOM      1  C           0     133.259 134.892 139.530  0.00  0.00     0.360 C 
ATOM      2  N           0     133.714 135.711 138.561  0.00  0.00    -0.335 N 
ATOM      3  O           0     132.758 133.824 139.238  0.00  0.00    -0.239 OA
ATOM      4  H           0     134.113 136.564 138.795  0.00  0.00     0.164 HD
ENDROOT
BRANCH   1   5
ATOM      5  O           0     133.358 135.258 140.822  0.00  0.00    -0.302 OA
BRANCH   5   6
ATOM      6  C           0     134.016 134.383 141.776  0.00  0.00     0.208 C 
BRANCH   6   7
ATOM      7  C           0     134.015 135.041 143.157  0.00  0.00     0.151 C 
ATOM      8  N           0     135.293 135.716 143.359  0.00  0.00    -0.218 N 
ATOM      9  C           0     136.427 134.940 143.519  0.00  0.00     0.672 C 
ATOM     10  H           0     135.347 136.685 143.381  0.00  0.00     0.178 HD
ATOM     11  N           0     137.612 135.362 143.175  0.00  0.00    -0.235 N 
ATOM     12  N           0     136.224 133.697 144.059  0.00  0.00    -0.183 N 
ATOM     13  H           0     137.720 136.246 142.793  0.00  0.00     0.174 HD
ATOM     14  H           0     138.386 134.792 143.305  0.00  0.00     0.174 HD
ATOM     15  C           0     134.970 133.174 144.605  0.00  0.00     0.217 C 
ATOM     16  C           0     137.187 132.586 144.162  0.00  0.00     0.150 C 
ATOM     17  C           0     133.743 133.978 144.203  0.00  0.00     0.180 C 
ATOM     18  C           0     134.889 131.717 144.115  0.00  0.00     0.209 C 
ATOM     19  N           0     134.981 133.208 146.075  0.00  0.00    -0.191 N 
ATOM     20  N           0     133.320 134.630 145.461  0.00  0.00    -0.216 N 
ATOM     21  C           0     133.906 133.947 146.499  0.00  0.00     0.670 C 
ATOM     22  H           0     132.735 135.400 145.538  0.00  0.00     0.178 HD
ATOM     23  N           0     133.491 133.997 147.734  0.00  0.00    -0.235 N 
ATOM     24  H           0     132.723 134.542 147.966  0.00  0.00     0.174 HD
ATOM     25  H           0     133.951 133.489 148.420  0.00  0.00     0.174 HD
ATOM     26  C           0     136.358 131.325 143.819  0.00  0.00     0.093 C 
ATOM     27  H           0     135.635 132.777 146.649  0.00  0.00     0.180 HD
BRANCH  18  28
ATOM     28  O           0     134.344 130.875 145.133  0.00  0.00    -0.362 OA
ATOM     29  H           0     133.620 131.367 145.544  0.00  0.00     0.213 HD
ENDBRANCH  18  28
BRANCH  18  30
ATOM     30  O           0     134.101 131.636 142.925  0.00  0.00    -0.362 OA
ATOM     31  H           0     133.618 132.470 142.853  0.00  0.00     0.213 HD
ENDBRANCH  18  30
ENDBRANCH   6   7
ENDBRANCH   5   6
ENDBRANCH   1   5
BRANCH   2  32
ATOM     32  C           0     133.605 135.313 137.155  0.00  0.00     0.144 C 
BRANCH  32  33
ATOM     33  C           0     132.211 135.662 136.632  0.00  0.00     0.142 C 
BRANCH  33  34
ATOM     34  N           0     131.960 134.934 135.386  0.00  0.00    -0.359 N 
ATOM     35  C           0     131.449 133.686 135.425  0.00  0.00     0.219 C 
ATOM     36  O           0     131.197 133.168 136.492  0.00  0.00    -0.274 OA
ATOM     37  H           0     132.163 135.348 134.533  0.00  0.00     0.162 HD
BRANCH  35  38
ATOM     38  C           0     131.192 132.938 134.143  0.00  0.00     0.123 C 
BRANCH  38  39
ATOM     39  C           0     132.418 133.047 133.234  0.00  0.00     0.144 C 
BRANCH  39  40
ATOM     40  N           0     132.818 131.709 132.790  0.00  0.00    -0.288 N 
ATOM     41  C           0     133.664 130.937 133.482  0.00  0.00     0.231 A 
ATOM     42  C           0     133.856 129.628 132.750  0.00  0.00     0.087 A 
ATOM     43  O           0     134.188 131.238 134.533  0.00  0.00    -0.273 OA
ATOM     44  C           0     132.972 129.781 131.495  0.00  0.00     0.117 A 
ATOM     45  C           0     132.369 131.159 131.654  0.00  0.00     0.227 A 
ATOM     46  O           0     131.600 131.683 130.876  0.00  0.00    -0.273 OA
BRANCH  42  47
ATOM     47  C           0     135.323 129.448 132.355  0.00  0.00     0.014 C 
BRANCH  47  48
ATOM     48  C           0     135.420 128.466 131.185  0.00  0.00     0.001 C 
BRANCH  48  49
ATOM     49  C           0     135.744 127.068 131.718  0.00  0.00     0.000 C 
BRANCH  49  50
ATOM     50  C           0     134.514 126.170 131.576  0.00  0.00     0.000 C 
BRANCH  50  51
ATOM     51  C           0     133.876 125.958 132.950  0.00  0.00     0.000 C 
BRANCH  51  52
ATOM     52  C           0     132.416 125.533 132.775  0.00  0.00     0.000 C 
BRANCH  52  53
ATOM     53  C           0     131.540 126.775 132.605  0.00  0.00     0.007 C 
BRANCH  53  54
ATOM     54  C           0     130.298 126.415 131.786  0.00  0.00     0.077 C 
BRANCH  54  55
ATOM     55  C           0     129.215 127.431 132.045  0.00  0.00     0.123 C 
ATOM     56  C           0     129.404 128.861 131.610  0.00  0.00     0.091 C 
ATOM     57  O           0     128.196 127.098 132.601  0.00  0.00    -0.298 OA
ENDBRANCH  54  55
ENDBRANCH  53  54
ENDBRANCH  52  53
ENDBRANCH  51  52
ENDBRANCH  50  51
ENDBRANCH  49  50
ENDBRANCH  48  49
ENDBRANCH  47  48
ENDBRANCH  42  47
ENDBRANCH  39  40
ENDBRANCH  38  39
ENDBRANCH  35  38
ENDBRANCH  33  34
ENDBRANCH  32  33
ENDBRANCH   2  32
TORSDOF 20
ENDMDL
MODEL 2
REMARK VINA RESULT:      -8.0      1.578      2.436
REMARK  20 active torsions:
REMARK  status: ('A' for Active; 'I' for Inactive)
REMARK    1  A    between atoms: C_6  and  C_7 
REMARK    2  A    between atoms: C_7  and  O_8 
REMARK    3  A    between atoms: O_8  and  C_9 
REMARK       I    between atoms: C_9  and  N_10 
REMARK    4  A    between atoms: N_10  and  C_11 
REMARK    5  A    between atoms: C_11  and  C_12 
REMARK    6  A    between atoms: C_12  and  N_13 
REMARK       I    between atoms: N_13  and  C_14 
REMARK    7  A    between atoms: C_14  and  C_15 
REMARK    8  A    between atoms: C_15  and  C_16 
REMARK    9  A    between atoms: C_16  and  N_17 
REMARK   10  A    between atoms: C_20  and  C_21 
REMARK   11  A    between atoms: C_21  and  C_22 
REMARK   12  A    between atoms: C_22  and  C_23 
REMARK   13  A    between atoms: C_23  and  C_24 
REMARK   14  A    between atoms: C_24  and  C_25 
REMARK   15  A    between atoms: C_25  and  C_26 
REMARK   16  A    between atoms: C_26  and  C_27 
REMARK   17  A    between atoms: C_27  and  C_28 
REMARK   18  A    between atoms: C_28  and  C_29 
REMARK   19  A    between atoms: C_48  and  O_49 
REMARK   20  A    between atoms: C_48  and  O_50 
ROOT
ATOM      1  C           0     133.304 135.091 139.904  0.00  0.00     0.360 C 
ATOM      2  N           0     133.828 135.627 138.784  0.00  0.00    -0.335 N 
ATOM      3  O           0     132.622 134.087 139.836  0.00  0.00    -0.239 OA
ATOM      4  H           0     134.372 136.428 138.838  0.00  0.00     0.164 HD
ENDROOT
BRANCH   1   5
ATOM      5  O           0     133.536 135.668 141.099  0.00  0.00    -0.302 OA
BRANCH   5   6
ATOM      6  C           0     133.931 134.854 142.234  0.00  0.00     0.208 C 
BRANCH   6   7
ATOM      7  C           0     135.238 134.127 141.910  0.00  0.00     0.151 C 
ATOM      8  N           0     134.947 132.716 141.676  0.00  0.00    -0.218 N 
ATOM      9  C           0     134.559 131.939 142.753  0.00  0.00     0.672 C 
ATOM     10  H           0     135.025 132.332 140.788  0.00  0.00     0.178 HD
ATOM     11  N           0     133.791 130.894 142.615  0.00  0.00    -0.235 N 
ATOM     12  N           0     135.030 132.341 143.975  0.00  0.00    -0.183 N 
ATOM     13  H           0     133.473 130.640 141.735  0.00  0.00     0.174 HD
ATOM     14  H           0     133.542 130.369 143.391  0.00  0.00     0.174 HD
ATOM     15  C           0     136.001 133.406 144.233  0.00  0.00     0.217 C 
ATOM     16  C           0     134.633 131.846 145.306  0.00  0.00     0.150 C 
ATOM     17  C           0     136.211 134.342 143.053  0.00  0.00     0.180 C 
ATOM     18  C           0     135.471 134.151 145.470  0.00  0.00     0.209 C 
ATOM     19  N           0     137.332 132.848 144.516  0.00  0.00    -0.191 N 
ATOM     20  N           0     137.580 134.028 142.591  0.00  0.00    -0.216 N 
ATOM     21  C           0     138.223 133.374 143.614  0.00  0.00     0.670 C 
ATOM     22  H           0     137.956 134.245 141.724  0.00  0.00     0.178 HD
ATOM     23  N           0     139.517 133.265 143.713  0.00  0.00    -0.235 N 
ATOM     24  H           0     140.091 133.661 143.039  0.00  0.00     0.174 HD
ATOM     25  H           0     139.907 132.789 144.463  0.00  0.00     0.174 HD
ATOM     26  C           0     134.561 133.118 146.184  0.00  0.00     0.093 C 
ATOM     27  H           0     137.546 132.218 145.223  0.00  0.00     0.180 HD
BRANCH  18  28
ATOM     28  O           0     136.549 134.538 146.324  0.00  0.00    -0.362 OA
ATOM     29  H           0     136.217 134.495 147.231  0.00  0.00     0.213 HD
ENDBRANCH  18  28
BRANCH  18  30
ATOM     30  O           0     134.711 135.295 145.075  0.00  0.00    -0.362 OA
ATOM     31  H           0     133.827 134.978 144.848  0.00  0.00     0.213 HD
ENDBRANCH  18  30
ENDBRANCH   6   7
ENDBRANCH   5   6
ENDBRANCH   1   5
BRANCH   2  32
ATOM     32  C           0     133.576 134.999 137.484  0.00  0.00     0.144 C 
BRANCH  32  33
ATOM     33  C           0     132.322 135.611 136.857  0.00  0.00     0.142 C 
BRANCH  33  34
ATOM     34  N           0     132.075 134.990 135.554  0.00  0.00    -0.359 N 
ATOM     35  C           0     131.521 133.762 135.486  0.00  0.00     0.219 C 
ATOM     36  O           0     131.228 133.172 136.505  0.00  0.00    -0.274 OA
ATOM     37  H           0     132.310 135.461 134.739  0.00  0.00     0.162 HD
BRANCH  35  38
ATOM     38  C           0     131.268 133.123 134.146  0.00  0.00     0.123 C 
BRANCH  38  39
ATOM     39  C           0     132.519 133.252 133.274  0.00  0.00     0.144 C 
BRANCH  39  40
ATOM     40  N           0     132.928 131.925 132.807  0.00  0.00    -0.288 N 
ATOM     41  C           0     133.792 131.154 133.478  0.00  0.00     0.231 A 
ATOM     42  C           0     133.990 129.857 132.726  0.00  0.00     0.087 A 
ATOM     43  O           0     134.324 131.447 134.527  0.00  0.00    -0.273 OA
ATOM     44  C           0     133.089 130.017 131.485  0.00  0.00     0.117 A 
ATOM     45  C           0     132.472 131.386 131.669  0.00  0.00     0.227 A 
ATOM     46  O           0     131.688 131.911 130.908  0.00  0.00    -0.273 OA
BRANCH  42  47
ATOM     47  C           0     135.454 129.699 132.312  0.00  0.00     0.014 C 
BRANCH  47  48
ATOM     48  C           0     135.529 128.960 130.974  0.00  0.00     0.001 C 
BRANCH  48  49
ATOM     49  C           0     136.096 127.557 131.198  0.00  0.00     0.000 C 
BRANCH  49  50
ATOM     50  C           0     134.949 126.545 131.248  0.00  0.00     0.000 C 
BRANCH  50  51
ATOM     51  C           0     134.649 126.185 132.704  0.00  0.00     0.000 C 
BRANCH  51  52
ATOM     52  C           0     133.210 125.679 132.819  0.00  0.00     0.000 C 
BRANCH  52  53
ATOM     53  C           0     132.278 126.607 132.037  0.00  0.00     0.007 C 
BRANCH  53  54
ATOM     54  C           0     131.186 127.136 132.968  0.00  0.00     0.077 C 
BRANCH  54  55
ATOM     55  C           0     129.838 126.939 132.324  0.00  0.00     0.123 C 
ATOM     56  C           0     128.790 128.018 132.425  0.00  0.00     0.091 C 
ATOM     57  O           0     129.598 125.918 131.726  0.00  0.00    -0.298 OA
ENDBRANCH  54  55
ENDBRANCH  53  54
ENDBRANCH  52  53
ENDBRANCH  51  52
ENDBRANCH  50  51
ENDBRANCH  49  50
ENDBRANCH  48  49
ENDBRANCH  47  48
ENDBRANCH  42  47
ENDBRANCH  39  40
ENDBRANCH  38  39
ENDBRANCH  35  38
ENDBRANCH  33  34
ENDBRANCH  32  33
ENDBRANCH   2  32
TORSDOF 20
ENDMDL
MODEL 3
REMARK VINA RESULT:      -7.9      3.005     12.697
REMARK  20 active torsions:
REMARK  status: ('A' for Active; 'I' for Inactive)
REMARK    1  A    between atoms: C_6  and  C_7 
REMARK    2  A    between atoms: C_7  and  O_8 
REMARK    3  A    between atoms: O_8  and  C_9 
REMARK       I    between atoms: C_9  and  N_10 
REMARK    4  A    between atoms: N_10  and  C_11 
REMARK    5  A    between atoms: C_11  and  C_12 
REMARK    6  A    between atoms: C_12  and  N_13 
REMARK       I    between atoms: N_13  and  C_14 
REMARK    7  A    between atoms: C_14  and  C_15 
REMARK    8  A    between atoms: C_15  and  C_16 
REMARK    9  A    between atoms: C_16  and  N_17 
REMARK   10  A    between atoms: C_20  and  C_21 
REMARK   11  A    between atoms: C_21  and  C_22 
REMARK   12  A    between atoms: C_22  and  C_23 
REMARK   13  A    between atoms: C_23  and  C_24 
REMARK   14  A    between atoms: C_24  and  C_25 
REMARK   15  A    between atoms: C_25  and  C_26 
REMARK   16  A    between atoms: C_26  and  C_27 
REMARK   17  A    between atoms: C_27  and  C_28 
REMARK   18  A    between atoms: C_28  and  C_29 
REMARK   19  A    between atoms: C_48  and  O_49 
REMARK   20  A    between atoms: C_48  and  O_50 
ROOT
ATOM      1  C           0     133.747 135.334 135.504  0.00  0.00     0.360 C 
ATOM      2  N           0     133.457 135.721 136.762  0.00  0.00    -0.335 N 
ATOM      3  O           0     134.551 134.444 135.312  0.00  0.00    -0.239 OA
ATOM      4  H           0     132.815 136.431 136.916  0.00  0.00     0.164 HD
ENDROOT
BRANCH   1   5
ATOM      5  O           0     133.145 135.935 134.459  0.00  0.00    -0.302 OA
BRANCH   5   6
ATOM      6  C           0     132.587 135.135 133.384  0.00  0.00     0.208 C 
BRANCH   6   7
ATOM      7  C           0     131.060 135.203 133.437  0.00  0.00     0.151 C 
ATOM      8  N           0     130.619 134.852 134.784  0.00  0.00    -0.218 N 
ATOM      9  C           0     130.765 133.541 135.202  0.00  0.00     0.672 C 
ATOM     10  H           0     130.232 135.521 135.372  0.00  0.00     0.178 HD
ATOM     11  N           0     130.926 133.226 136.457  0.00  0.00    -0.235 N 
ATOM     12  N           0     130.736 132.596 134.211  0.00  0.00    -0.183 N 
ATOM     13  H           0     130.946 133.921 137.132  0.00  0.00     0.174 HD
ATOM     14  H           0     131.022 132.296 136.715  0.00  0.00     0.174 HD
ATOM     15  C           0     130.427 132.818 132.797  0.00  0.00     0.217 C 
ATOM     16  C           0     131.062 131.162 134.317  0.00  0.00     0.150 C 
ATOM     17  C           0     130.493 134.279 132.378  0.00  0.00     0.180 C 
ATOM     18  C           0     131.431 131.951 132.019  0.00  0.00     0.209 C 
ATOM     19  N           0     129.053 132.396 132.485  0.00  0.00    -0.191 N 
ATOM     20  N           0     129.082 134.638 132.123  0.00  0.00    -0.216 N 
ATOM     21  C           0     128.380 133.469 131.958  0.00  0.00     0.670 C 
ATOM     22  H           0     128.718 135.536 132.080  0.00  0.00     0.178 HD
ATOM     23  N           0     127.217 133.390 131.373  0.00  0.00    -0.235 N 
ATOM     24  H           0     126.795 134.190 131.022  0.00  0.00     0.174 HD
ATOM     25  H           0     126.775 132.531 131.290  0.00  0.00     0.174 HD
ATOM     26  C           0     131.856 130.852 133.026  0.00  0.00     0.093 C 
ATOM     27  H           0     128.685 131.509 132.625  0.00  0.00     0.180 HD
BRANCH  18  28
ATOM     28  O           0     130.807 131.364 130.875  0.00  0.00    -0.362 OA
ATOM     29  H           0     131.214 131.769 130.097  0.00  0.00     0.213 HD
ENDBRANCH  18  28
BRANCH  18  30
ATOM     30  O           0     132.563 132.730 131.626  0.00  0.00    -0.362 OA
ATOM     31  H           0     132.641 132.644 130.666  0.00  0.00     0.213 HD
ENDBRANCH  18  30
ENDBRANCH   6   7
ENDBRANCH   5   6
ENDBRANCH   1   5
BRANCH   2  32
ATOM     32  C           0     134.112 135.067 137.898  0.00  0.00     0.144 C 
BRANCH  32  33
ATOM     33  C           0     133.246 135.228 139.148  0.00  0.00     0.142 C 
BRANCH  33  34
ATOM     34  N           0     133.795 134.410 140.232  0.00  0.00    -0.359 N 
ATOM     35  C           0     133.019 133.492 140.843  0.00  0.00     0.219 C 
ATOM     36  O           0     131.867 133.343 140.495  0.00  0.00    -0.274 OA
ATOM     37  H           0     134.716 134.529 140.511  0.00  0.00     0.162 HD
BRANCH  35  38
ATOM     38  C           0     133.584 132.651 141.958  0.00  0.00     0.123 C 
BRANCH  38  39
ATOM     39  C           0     134.782 133.370 142.583  0.00  0.00     0.144 C 
BRANCH  39  40
ATOM     40  N           0     134.348 134.092 143.781  0.00  0.00    -0.288 N 
ATOM     41  C           0     134.200 133.498 144.972  0.00  0.00     0.231 A 
ATOM     42  C           0     133.747 134.524 145.987  0.00  0.00     0.087 A 
ATOM     43  O           0     134.405 132.326 145.201  0.00  0.00    -0.273 OA
ATOM     44  C           0     133.648 135.826 145.167  0.00  0.00     0.117 A 
ATOM     45  C           0     134.061 135.400 143.775  0.00  0.00     0.227 A 
ATOM     46  O           0     134.123 136.127 142.807  0.00  0.00    -0.273 OA
BRANCH  42  47
ATOM     47  C           0     132.380 134.142 146.558  0.00  0.00     0.014 C 
BRANCH  47  48
ATOM     48  C           0     132.490 133.972 148.075  0.00  0.00     0.001 C 
BRANCH  48  49
ATOM     49  C           0     133.963 134.018 148.488  0.00  0.00     0.000 C 
BRANCH  49  50
ATOM     50  C           0     134.242 132.908 149.504  0.00  0.00     0.000 C 
BRANCH  50  51
ATOM     51  C           0     135.217 131.896 148.899  0.00  0.00     0.000 C 
BRANCH  51  52
ATOM     52  C           0     134.928 130.506 149.467  0.00  0.00     0.000 C 
BRANCH  52  53
ATOM     53  C           0     133.421 130.243 149.431  0.00  0.00     0.007 C 
BRANCH  53  54
ATOM     54  C           0     133.157 128.754 149.667  0.00  0.00     0.077 C 
BRANCH  54  55
ATOM     55  C           0     132.412 128.184 148.488  0.00  0.00     0.123 C 
ATOM     56  C           0     133.167 127.487 147.385  0.00  0.00     0.091 C 
ATOM     57  O           0     131.210 128.284 148.426  0.00  0.00    -0.298 OA
ENDBRANCH  54  55
ENDBRANCH  53  54
ENDBRANCH  52  53
ENDBRANCH  51  52
ENDBRANCH  50  51
ENDBRANCH  49  50
ENDBRANCH  48  49
ENDBRANCH  47  48
ENDBRANCH  42  47
ENDBRANCH  39  40
ENDBRANCH  38  39
ENDBRANCH  35  38
ENDBRANCH  33  34
ENDBRANCH  32  33
ENDBRANCH   2  32
TORSDOF 20
ENDMDL
MODEL 4
REMARK VINA RESULT:      -7.7      2.946     12.641
REMARK  20 active torsions:
REMARK  status: ('A' for Active; 'I' for Inactive)
REMARK    1  A    between atoms: C_6  and  C_7 
REMARK    2  A    between atoms: C_7  and  O_8 
REMARK    3  A    between atoms: O_8  and  C_9 
REMARK       I    between atoms: C_9  and  N_10 
REMARK    4  A    between atoms: N_10  and  C_11 
REMARK    5  A    between atoms: C_11  and  C_12 
REMARK    6  A    between atoms: C_12  and  N_13 
REMARK       I    between atoms: N_13  and  C_14 
REMARK    7  A    between atoms: C_14  and  C_15 
REMARK    8  A    between atoms: C_15  and  C_16 
REMARK    9  A    between atoms: C_16  and  N_17 
REMARK   10  A    between atoms: C_20  and  C_21 
REMARK   11  A    between atoms: C_21  and  C_22 
REMARK   12  A    between atoms: C_22  and  C_23 
REMARK   13  A    between atoms: C_23  and  C_24 
REMARK   14  A    between atoms: C_24  and  C_25 
REMARK   15  A    between atoms: C_25  and  C_26 
REMARK   16  A    between atoms: C_26  and  C_27 
REMARK   17  A    between atoms: C_27  and  C_28 
REMARK   18  A    between atoms: C_28  and  C_29 
REMARK   19  A    between atoms: C_48  and  O_49 
REMARK   20  A    between atoms: C_48  and  O_50 
ROOT
ATOM      1  C           0     133.085 135.754 135.729  0.00  0.00     0.360 C 
ATOM      2  N           0     132.657 135.391 136.953  0.00  0.00    -0.335 N 
ATOM      3  O           0     134.273 135.751 135.474  0.00  0.00    -0.239 OA
ATOM      4  H           0     131.709 135.393 137.156  0.00  0.00     0.164 HD
ENDROOT
BRANCH   1   5
ATOM      5  O           0     132.196 136.122 134.786  0.00  0.00    -0.302 OA
BRANCH   5   6
ATOM      6  C           0     131.486 135.110 134.024  0.00  0.00     0.208 C 
BRANCH   6   7
ATOM      7  C           0     132.370 134.624 132.874  0.00  0.00     0.151 C 
ATOM      8  N           0     131.543 134.458 131.682  0.00  0.00    -0.218 N 
ATOM      9  C           0     130.620 133.427 131.662  0.00  0.00     0.672 C 
ATOM     10  H           0     131.639 135.055 130.922  0.00  0.00     0.178 HD
ATOM     11  N           0     129.521 133.493 130.963  0.00  0.00    -0.235 N 
ATOM     12  N           0     130.933 132.335 132.427  0.00  0.00    -0.183 N 
ATOM     13  H           0     129.329 134.283 130.435  0.00  0.00     0.174 HD
ATOM     14  H           0     128.898 132.750 130.968  0.00  0.00     0.174 HD
ATOM     15  C           0     132.191 132.095 133.137  0.00  0.00     0.217 C 
ATOM     16  C           0     130.071 131.188 132.763  0.00  0.00     0.150 C 
ATOM     17  C           0     133.053 133.338 133.295  0.00  0.00     0.180 C 
ATOM     18  C           0     131.784 131.501 134.497  0.00  0.00     0.209 C 
ATOM     19  N           0     133.035 131.138 132.405  0.00  0.00    -0.191 N 
ATOM     20  N           0     134.205 133.085 132.403  0.00  0.00    -0.216 N 
ATOM     21  C           0     134.243 131.736 132.147  0.00  0.00     0.670 C 
ATOM     22  H           0     134.822 133.751 132.061  0.00  0.00     0.178 HD
ATOM     23  N           0     135.296 131.103 131.712  0.00  0.00    -0.235 N 
ATOM     24  H           0     136.121 131.588 131.550  0.00  0.00     0.174 HD
ATOM     25  H           0     135.255 130.147 131.552  0.00  0.00     0.174 HD
ATOM     26  C           0     130.377 130.900 134.252  0.00  0.00     0.093 C 
ATOM     27  H           0     132.783 130.236 132.151  0.00  0.00     0.180 HD
BRANCH  18  28
ATOM     28  O           0     132.700 130.479 134.893  0.00  0.00    -0.362 OA
ATOM     29  H           0     132.988 130.033 134.084  0.00  0.00     0.213 HD
ENDBRANCH  18  28
BRANCH  18  30
ATOM     30  O           0     131.722 132.527 135.489  0.00  0.00    -0.362 OA
ATOM     31  H           0     131.474 132.098 136.319  0.00  0.00     0.213 HD
ENDBRANCH  18  30
ENDBRANCH   6   7
ENDBRANCH   5   6
ENDBRANCH   1   5
BRANCH   2  32
ATOM     32  C           0     133.625 134.992 137.979  0.00  0.00     0.144 C 
BRANCH  32  33
ATOM     33  C           0     133.061 135.309 139.364  0.00  0.00     0.142 C 
BRANCH  33  34
ATOM     34  N           0     133.746 134.493 140.370  0.00  0.00    -0.359 N 
ATOM     35  C           0     133.085 133.498 140.995  0.00  0.00     0.219 C 
ATOM     36  O           0     131.923 133.278 140.723  0.00  0.00    -0.274 OA
ATOM     37  H           0     134.674 134.670 140.586  0.00  0.00     0.162 HD
BRANCH  35  38
ATOM     38  C           0     133.790 132.660 142.029  0.00  0.00     0.123 C 
BRANCH  38  39
ATOM     39  C           0     134.919 133.475 142.663  0.00  0.00     0.144 C 
BRANCH  39  40
ATOM     40  N           0     134.428 134.125 143.881  0.00  0.00    -0.288 N 
ATOM     41  C           0     134.293 133.477 145.045  0.00  0.00     0.231 A 
ATOM     42  C           0     133.771 134.436 146.091  0.00  0.00     0.087 A 
ATOM     43  O           0     134.555 132.308 145.231  0.00  0.00    -0.273 OA
ATOM     44  C           0     133.616 135.763 145.321  0.00  0.00     0.117 A 
ATOM     45  C           0     134.074 135.415 143.922  0.00  0.00     0.227 A 
ATOM     46  O           0     134.113 136.183 142.984  0.00  0.00    -0.273 OA
BRANCH  42  47
ATOM     47  C           0     132.417 133.961 146.622  0.00  0.00     0.014 C 
BRANCH  47  48
ATOM     48  C           0     132.479 133.843 148.146  0.00  0.00     0.001 C 
BRANCH  48  49
ATOM     49  C           0     133.878 133.387 148.565  0.00  0.00     0.000 C 
BRANCH  49  50
ATOM     50  C           0     133.772 132.483 149.796  0.00  0.00     0.000 C 
BRANCH  50  51
ATOM     51  C           0     133.253 131.107 149.374  0.00  0.00     0.000 C 
BRANCH  51  52
ATOM     52  C           0     133.748 130.050 150.363  0.00  0.00     0.000 C 
BRANCH  52  53
ATOM     53  C           0     132.903 128.783 150.222  0.00  0.00     0.007 C 
BRANCH  53  54
ATOM     54  C           0     131.839 128.996 149.143  0.00  0.00     0.077 C 
BRANCH  54  55
ATOM     55  C           0     132.009 127.963 148.059  0.00  0.00     0.123 C 
ATOM     56  C           0     133.387 127.618 147.558  0.00  0.00     0.091 C 
ATOM     57  O           0     131.041 127.411 147.594  0.00  0.00    -0.298 OA
ENDBRANCH  54  55
ENDBRANCH  53  54
ENDBRANCH  52  53
ENDBRANCH  51  52
ENDBRANCH  50  51
ENDBRANCH  49  50
ENDBRANCH  48  49
ENDBRANCH  47  48
ENDBRANCH  42  47
ENDBRANCH  39  40
ENDBRANCH  38  39
ENDBRANCH  35  38
ENDBRANCH  33  34
ENDBRANCH  32  33
ENDBRANCH   2  32
TORSDOF 20
ENDMDL
MODEL 5
REMARK VINA RESULT:      -7.6      4.633      9.337
REMARK  20 active torsions:
REMARK  status: ('A' for Active; 'I' for Inactive)
REMARK    1  A    between atoms: C_6  and  C_7 
REMARK    2  A    between atoms: C_7  and  O_8 
REMARK    3  A    between atoms: O_8  and  C_9 
REMARK       I    between atoms: C_9  and  N_10 
REMARK    4  A    between atoms: N_10  and  C_11 
REMARK    5  A    between atoms: C_11  and  C_12 
REMARK    6  A    between atoms: C_12  and  N_13 
REMARK       I    between atoms: N_13  and  C_14 
REMARK    7  A    between atoms: C_14  and  C_15 
REMARK    8  A    between atoms: C_15  and  C_16 
REMARK    9  A    between atoms: C_16  and  N_17 
REMARK   10  A    between atoms: C_20  and  C_21 
REMARK   11  A    between atoms: C_21  and  C_22 
REMARK   12  A    between atoms: C_22  and  C_23 
REMARK   13  A    between atoms: C_23  and  C_24 
REMARK   14  A    between atoms: C_24  and  C_25 
REMARK   15  A    between atoms: C_25  and  C_26 
REMARK   16  A    between atoms: C_26  and  C_27 
REMARK   17  A    between atoms: C_27  and  C_28 
REMARK   18  A    between atoms: C_28  and  C_29 
REMARK   19  A    between atoms: C_48  and  O_49 
REMARK   20  A    between atoms: C_48  and  O_50 
ROOT
ATOM      1  C           0     133.597 129.496 149.190  0.00  0.00     0.360 C 
ATOM      2  N           0     133.572 130.843 149.211  0.00  0.00    -0.335 N 
ATOM      3  O           0     132.625 128.864 149.555  0.00  0.00    -0.239 OA
ATOM      4  H           0     134.347 131.347 148.919  0.00  0.00     0.164 HD
ENDROOT
BRANCH   1   5
ATOM      5  O           0     134.699 128.849 148.765  0.00  0.00    -0.302 OA
BRANCH   5   6
ATOM      6  C           0     136.004 129.471 148.901  0.00  0.00     0.208 C 
BRANCH   6   7
ATOM      7  C           0     136.699 129.503 147.539  0.00  0.00     0.151 C 
ATOM      8  N           0     138.050 128.968 147.686  0.00  0.00    -0.218 N 
ATOM      9  C           0     138.977 129.715 148.390  0.00  0.00     0.672 C 
ATOM     10  H           0     138.291 128.111 147.299  0.00  0.00     0.178 HD
ATOM     11  N           0     139.971 129.163 149.031  0.00  0.00    -0.235 N 
ATOM     12  N           0     138.783 131.071 148.376  0.00  0.00    -0.183 N 
ATOM     13  H           0     140.077 128.200 149.023  0.00  0.00     0.174 HD
ATOM     14  H           0     140.605 129.717 149.511  0.00  0.00     0.174 HD
ATOM     15  C           0     137.793 131.805 147.585  0.00  0.00     0.217 C 
ATOM     16  C           0     139.471 132.093 149.183  0.00  0.00     0.150 C 
ATOM     17  C           0     136.688 130.927 147.019  0.00  0.00     0.180 C 
ATOM     18  C           0     137.240 132.888 148.528  0.00  0.00     0.209 C 
ATOM     19  N           0     138.417 132.434 146.411  0.00  0.00    -0.191 N 
ATOM     20  N           0     136.955 130.916 145.564  0.00  0.00    -0.216 N 
ATOM     21  C           0     137.776 131.981 145.286  0.00  0.00     0.670 C 
ATOM     22  H           0     136.613 130.272 144.924  0.00  0.00     0.178 HD
ATOM     23  N           0     137.926 132.497 144.099  0.00  0.00    -0.235 N 
ATOM     24  H           0     137.442 132.128 143.344  0.00  0.00     0.174 HD
ATOM     25  H           0     138.523 133.251 143.970  0.00  0.00     0.174 HD
ATOM     26  C           0     138.351 133.080 149.591  0.00  0.00     0.093 C 
ATOM     27  H           0     139.154 133.065 146.429  0.00  0.00     0.180 HD
BRANCH  18  28
ATOM     28  O           0     137.015 134.106 147.817  0.00  0.00    -0.362 OA
ATOM     29  H           0     136.254 133.956 147.240  0.00  0.00     0.213 HD
ENDBRANCH  18  28
BRANCH  18  30
ATOM     30  O           0     136.032 132.440 149.146  0.00  0.00    -0.362 OA
ATOM     31  H           0     136.164 132.509 150.101  0.00  0.00     0.213 HD
ENDBRANCH  18  30
ENDBRANCH   6   7
ENDBRANCH   5   6
ENDBRANCH   1   5
BRANCH   2  32
ATOM     32  C           0     132.372 131.546 149.674  0.00  0.00     0.144 C 
BRANCH  32  33
ATOM     33  C           0     132.488 133.032 149.330  0.00  0.00     0.142 C 
BRANCH  33  34
ATOM     34  N           0     132.428 133.203 147.876  0.00  0.00    -0.359 N 
ATOM     35  C           0     133.325 133.993 147.253  0.00  0.00     0.219 C 
ATOM     36  O           0     134.182 134.563 147.897  0.00  0.00    -0.274 OA
ATOM     37  H           0     131.743 132.748 147.362  0.00  0.00     0.162 HD
BRANCH  35  38
ATOM     38  C           0     133.263 134.170 145.758  0.00  0.00     0.123 C 
BRANCH  38  39
ATOM     39  C           0     134.672 134.048 145.172  0.00  0.00     0.144 C 
BRANCH  39  40
ATOM     40  N           0     134.582 133.660 143.762  0.00  0.00    -0.288 N 
ATOM     41  C           0     134.506 134.552 142.767  0.00  0.00     0.231 A 
ATOM     42  C           0     134.430 133.819 141.446  0.00  0.00     0.087 A 
ATOM     43  O           0     134.506 135.756 142.904  0.00  0.00    -0.273 OA
ATOM     44  C           0     134.466 132.333 141.854  0.00  0.00     0.117 A 
ATOM     45  C           0     134.564 132.382 143.362  0.00  0.00     0.227 A 
ATOM     46  O           0     134.618 131.416 144.094  0.00  0.00    -0.273 OA
BRANCH  42  47
ATOM     47  C           0     133.121 134.150 140.728  0.00  0.00     0.014 C 
BRANCH  47  48
ATOM     48  C           0     133.345 135.323 139.771  0.00  0.00     0.001 C 
BRANCH  48  49
ATOM     49  C           0     133.145 134.851 138.329  0.00  0.00     0.000 C 
BRANCH  49  50
ATOM     50  C           0     134.325 135.315 137.473  0.00  0.00     0.000 C 
BRANCH  50  51
ATOM     51  C           0     133.911 135.330 136.000  0.00  0.00     0.000 C 
BRANCH  51  52
ATOM     52  C           0     132.387 135.243 135.897  0.00  0.00     0.000 C 
BRANCH  52  53
ATOM     53  C           0     132.003 134.493 134.620  0.00  0.00     0.007 C 
BRANCH  53  54
ATOM     54  C           0     130.753 133.651 134.879  0.00  0.00     0.077 C 
BRANCH  54  55
ATOM     55  C           0     131.124 132.437 135.691  0.00  0.00     0.123 C 
ATOM     56  C           0     130.469 132.196 137.027  0.00  0.00     0.091 C 
ATOM     57  O           0     131.945 131.657 135.272  0.00  0.00    -0.298 OA
ENDBRANCH  54  55
ENDBRANCH  53  54
ENDBRANCH  52  53
ENDBRANCH  51  52
ENDBRANCH  50  51
ENDBRANCH  49  50
ENDBRANCH  48  49
ENDBRANCH  47  48
ENDBRANCH  42  47
ENDBRANCH  39  40
ENDBRANCH  38  39
ENDBRANCH  35  38
ENDBRANCH  33  34
ENDBRANCH  32  33
ENDBRANCH   2  32
TORSDOF 20
ENDMDL
MODEL 6
REMARK VINA RESULT:      -7.6      3.495     12.640
REMARK  20 active torsions:
REMARK  status: ('A' for Active; 'I' for Inactive)
REMARK    1  A    between atoms: C_6  and  C_7 
REMARK    2  A    between atoms: C_7  and  O_8 
REMARK    3  A    between atoms: O_8  and  C_9 
REMARK       I    between atoms: C_9  and  N_10 
REMARK    4  A    between atoms: N_10  and  C_11 
REMARK    5  A    between atoms: C_11  and  C_12 
REMARK    6  A    between atoms: C_12  and  N_13 
REMARK       I    between atoms: N_13  and  C_14 
REMARK    7  A    between atoms: C_14  and  C_15 
REMARK    8  A    between atoms: C_15  and  C_16 
REMARK    9  A    between atoms: C_16  and  N_17 
REMARK   10  A    between atoms: C_20  and  C_21 
REMARK   11  A    between atoms: C_21  and  C_22 
REMARK   12  A    between atoms: C_22  and  C_23 
REMARK   13  A    between atoms: C_23  and  C_24 
REMARK   14  A    between atoms: C_24  and  C_25 
REMARK   15  A    between atoms: C_25  and  C_26 
REMARK   16  A    between atoms: C_26  and  C_27 
REMARK   17  A    between atoms: C_27  and  C_28 
REMARK   18  A    between atoms: C_28  and  C_29 
REMARK   19  A    between atoms: C_48  and  O_49 
REMARK   20  A    between atoms: C_48  and  O_50 
ROOT
ATOM      1  C           0     133.676 135.355 136.886  0.00  0.00     0.360 C 
ATOM      2  N           0     132.776 135.403 137.888  0.00  0.00    -0.335 N 
ATOM      3  O           0     134.864 135.433 137.131  0.00  0.00    -0.239 OA
ATOM      4  H           0     131.828 135.340 137.692  0.00  0.00     0.164 HD
ENDROOT
BRANCH   1   5
ATOM      5  O           0     133.259 135.220 135.612  0.00  0.00    -0.302 OA
BRANCH   5   6
ATOM      6  C           0     131.931 134.704 135.333  0.00  0.00     0.208 C 
BRANCH   6   7
ATOM      7  C           0     132.018 133.204 135.044  0.00  0.00     0.151 C 
ATOM      8  N           0     133.108 132.968 134.102  0.00  0.00    -0.218 N 
ATOM      9  C           0     132.955 133.405 132.798  0.00  0.00     0.672 C 
ATOM     10  H           0     133.920 132.516 134.383  0.00  0.00     0.178 HD
ATOM     11  N           0     133.972 133.741 132.054  0.00  0.00    -0.235 N 
ATOM     12  N           0     131.665 133.467 132.341  0.00  0.00    -0.183 N 
ATOM     13  H           0     134.871 133.688 132.411  0.00  0.00     0.174 HD
ATOM     14  H           0     133.828 134.039 131.143  0.00  0.00     0.174 HD
ATOM     15  C           0     130.466 132.989 133.033  0.00  0.00     0.217 C 
ATOM     16  C           0     131.176 134.073 131.090  0.00  0.00     0.150 C 
ATOM     17  C           0     130.678 132.731 134.517  0.00  0.00     0.180 C 
ATOM     18  C           0     129.395 134.065 132.784  0.00  0.00     0.209 C 
ATOM     19  N           0     130.019 131.700 132.484  0.00  0.00    -0.191 N 
ATOM     20  N           0     130.601 131.259 134.635  0.00  0.00    -0.216 N 
ATOM     21  C           0     129.979 130.785 133.505  0.00  0.00     0.670 C 
ATOM     22  H           0     130.930 130.726 135.375  0.00  0.00     0.178 HD
ATOM     23  N           0     129.421 129.611 133.416  0.00  0.00    -0.235 N 
ATOM     24  H           0     129.429 129.010 134.178  0.00  0.00     0.174 HD
ATOM     25  H           0     128.998 129.337 132.587  0.00  0.00     0.174 HD
ATOM     26  C           0     129.865 134.788 131.495  0.00  0.00     0.093 C 
ATOM     27  H           0     129.788 131.527 131.557  0.00  0.00     0.180 HD
BRANCH  18  28
ATOM     28  O           0     128.116 133.463 132.579  0.00  0.00    -0.362 OA
ATOM     29  H           0     128.010 133.351 131.625  0.00  0.00     0.213 HD
ENDBRANCH  18  28
BRANCH  18  30
ATOM     30  O           0     129.346 134.982 133.879  0.00  0.00    -0.362 OA
ATOM     31  H           0     130.173 135.482 133.862  0.00  0.00     0.213 HD
ENDBRANCH  18  30
ENDBRANCH   6   7
ENDBRANCH   5   6
ENDBRANCH   1   5
BRANCH   2  32
ATOM     32  C           0     133.230 135.550 139.274  0.00  0.00     0.144 C 
BRANCH  32  33
ATOM     33  C           0     133.117 134.205 139.992  0.00  0.00     0.142 C 
BRANCH  33  34
ATOM     34  N           0     134.437 133.799 140.480  0.00  0.00    -0.359 N 
ATOM     35  C           0     134.561 133.229 141.696  0.00  0.00     0.219 C 
ATOM     36  O           0     133.578 133.051 142.385  0.00  0.00    -0.274 OA
ATOM     37  H           0     135.223 133.942 139.929  0.00  0.00     0.162 HD
BRANCH  35  38
ATOM     38  C           0     135.919 132.812 142.197  0.00  0.00     0.123 C 
BRANCH  38  39
ATOM     39  C           0     136.557 133.973 142.964  0.00  0.00     0.144 C 
BRANCH  39  40
ATOM     40  N           0     137.036 133.496 144.264  0.00  0.00    -0.288 N 
ATOM     41  C           0     138.262 132.990 144.445  0.00  0.00     0.231 A 
ATOM     42  C           0     138.431 132.600 145.896  0.00  0.00     0.087 A 
ATOM     43  O           0     139.105 132.871 143.582  0.00  0.00    -0.273 OA
ATOM     44  C           0     137.072 132.963 146.529  0.00  0.00     0.117 A 
ATOM     45  C           0     136.280 133.525 145.369  0.00  0.00     0.227 A 
ATOM     46  O           0     135.141 133.938 145.430  0.00  0.00    -0.273 OA
BRANCH  42  47
ATOM     47  C           0     138.697 131.099 146.018  0.00  0.00     0.014 C 
BRANCH  47  48
ATOM     48  C           0     137.663 130.471 146.956  0.00  0.00     0.001 C 
BRANCH  48  49
ATOM     49  C           0     138.382 129.670 148.043  0.00  0.00     0.000 C 
BRANCH  49  50
ATOM     50  C           0     137.516 129.632 149.305  0.00  0.00     0.000 C 
BRANCH  50  51
ATOM     51  C           0     136.326 130.580 149.135  0.00  0.00     0.000 C 
BRANCH  51  52
ATOM     52  C           0     135.234 130.212 150.141  0.00  0.00     0.000 C 
BRANCH  52  53
ATOM     53  C           0     133.971 129.786 149.390  0.00  0.00     0.007 C 
BRANCH  53  54
ATOM     54  C           0     134.016 128.279 149.129  0.00  0.00     0.077 C 
BRANCH  54  55
ATOM     55  C           0     133.743 128.014 147.670  0.00  0.00     0.123 C 
ATOM     56  C           0     132.474 127.315 147.257  0.00  0.00     0.091 C 
ATOM     57  O           0     134.541 128.362 146.834  0.00  0.00    -0.298 OA
ENDBRANCH  54  55
ENDBRANCH  53  54
ENDBRANCH  52  53
ENDBRANCH  51  52
ENDBRANCH  50  51
ENDBRANCH  49  50
ENDBRANCH  48  49
ENDBRANCH  47  48
ENDBRANCH  42  47
ENDBRANCH  39  40
ENDBRANCH  38  39
ENDBRANCH  35  38
ENDBRANCH  33  34
ENDBRANCH  32  33
ENDBRANCH   2  32
TORSDOF 20
ENDMDL
MODEL 7
REMARK VINA RESULT:      -7.4      2.992     12.270
REMARK  20 active torsions:
REMARK  status: ('A' for Active; 'I' for Inactive)
REMARK    1  A    between atoms: C_6  and  C_7 
REMARK    2  A    between atoms: C_7  and  O_8 
REMARK    3  A    between atoms: O_8  and  C_9 
REMARK       I    between atoms: C_9  and  N_10 
REMARK    4  A    between atoms: N_10  and  C_11 
REMARK    5  A    between atoms: C_11  and  C_12 
REMARK    6  A    between atoms: C_12  and  N_13 
REMARK       I    between atoms: N_13  and  C_14 
REMARK    7  A    between atoms: C_14  and  C_15 
REMARK    8  A    between atoms: C_15  and  C_16 
REMARK    9  A    between atoms: C_16  and  N_17 
REMARK   10  A    between atoms: C_20  and  C_21 
REMARK   11  A    between atoms: C_21  and  C_22 
REMARK   12  A    between atoms: C_22  and  C_23 
REMARK   13  A    between atoms: C_23  and  C_24 
REMARK   14  A    between atoms: C_24  and  C_25 
REMARK   15  A    between atoms: C_25  and  C_26 
REMARK   16  A    between atoms: C_26  and  C_27 
REMARK   17  A    between atoms: C_27  and  C_28 
REMARK   18  A    between atoms: C_28  and  C_29 
REMARK   19  A    between atoms: C_48  and  O_49 
REMARK   20  A    between atoms: C_48  and  O_50 
ROOT
ATOM      1  C           0     133.791 135.393 135.654  0.00  0.00     0.360 C 
ATOM      2  N           0     133.405 135.677 136.913  0.00  0.00    -0.335 N 
ATOM      3  O           0     134.700 134.610 135.458  0.00  0.00    -0.239 OA
ATOM      4  H           0     132.680 136.302 137.069  0.00  0.00     0.164 HD
ENDROOT
BRANCH   1   5
ATOM      5  O           0     133.169 135.977 134.611  0.00  0.00    -0.302 OA
BRANCH   5   6
ATOM      6  C           0     132.632 135.161 133.537  0.00  0.00     0.208 C 
BRANCH   6   7
ATOM      7  C           0     131.103 135.209 133.577  0.00  0.00     0.151 C 
ATOM      8  N           0     130.654 134.804 134.906  0.00  0.00    -0.218 N 
ATOM      9  C           0     130.813 133.480 135.277  0.00  0.00     0.672 C 
ATOM     10  H           0     130.253 135.446 135.513  0.00  0.00     0.178 HD
ATOM     11  N           0     130.965 133.122 136.522  0.00  0.00    -0.235 N 
ATOM     12  N           0     130.805 132.571 134.253  0.00  0.00    -0.183 N 
ATOM     13  H           0     130.969 133.792 137.222  0.00  0.00     0.174 HD
ATOM     14  H           0     131.070 132.185 136.747  0.00  0.00     0.174 HD
ATOM     15  C           0     130.506 132.841 132.845  0.00  0.00     0.217 C 
ATOM     16  C           0     131.147 131.139 134.310  0.00  0.00     0.150 C 
ATOM     17  C           0     130.558 134.317 132.479  0.00  0.00     0.180 C 
ATOM     18  C           0     131.529 132.015 132.046  0.00  0.00     0.209 C 
ATOM     19  N           0     129.141 132.414 132.504  0.00  0.00    -0.191 N 
ATOM     20  N           0     129.145 134.668 132.223  0.00  0.00    -0.216 N 
ATOM     21  C           0     128.459 133.497 132.009  0.00  0.00     0.670 C 
ATOM     22  H           0     128.771 135.563 132.209  0.00  0.00     0.178 HD
ATOM     23  N           0     127.304 133.426 131.411  0.00  0.00    -0.235 N 
ATOM     24  H           0     126.875 134.232 131.084  0.00  0.00     0.174 HD
ATOM     25  H           0     126.873 132.565 131.291  0.00  0.00     0.174 HD
ATOM     26  C           0     131.957 130.885 133.017  0.00  0.00     0.093 C 
ATOM     27  H           0     128.783 131.518 132.608  0.00  0.00     0.180 HD
BRANCH  18  28
ATOM     28  O           0     130.923 131.463 130.875  0.00  0.00    -0.362 OA
ATOM     29  H           0     129.971 131.607 130.959  0.00  0.00     0.213 HD
ENDBRANCH  18  28
BRANCH  18  30
ATOM     30  O           0     132.654 132.822 131.693  0.00  0.00    -0.362 OA
ATOM     31  H           0     133.314 132.228 131.309  0.00  0.00     0.213 HD
ENDBRANCH  18  30
ENDBRANCH   6   7
ENDBRANCH   5   6
ENDBRANCH   1   5
BRANCH   2  32
ATOM     32  C           0     134.082 135.043 138.048  0.00  0.00     0.144 C 
BRANCH  32  33
ATOM     33  C           0     133.252 135.246 139.316  0.00  0.00     0.142 C 
BRANCH  33  34
ATOM     34  N           0     133.741 134.353 140.369  0.00  0.00    -0.359 N 
ATOM     35  C           0     132.902 133.472 140.950  0.00  0.00     0.219 C 
ATOM     36  O           0     131.742 133.418 140.600  0.00  0.00    -0.274 OA
ATOM     37  H           0     134.669 134.396 140.649  0.00  0.00     0.162 HD
BRANCH  35  38
ATOM     38  C           0     133.406 132.554 142.033  0.00  0.00     0.123 C 
BRANCH  38  39
ATOM     39  C           0     133.610 133.352 143.323  0.00  0.00     0.144 C 
BRANCH  39  40
ATOM     40  N           0     135.042 133.569 143.543  0.00  0.00    -0.288 N 
ATOM     41  C           0     135.872 132.593 143.932  0.00  0.00     0.231 A 
ATOM     42  C           0     137.272 133.151 144.060  0.00  0.00     0.087 A 
ATOM     43  O           0     135.552 131.443 144.142  0.00  0.00    -0.273 OA
ATOM     44  C           0     137.105 134.637 143.683  0.00  0.00     0.117 A 
ATOM     45  C           0     135.629 134.761 143.375  0.00  0.00     0.227 A 
ATOM     46  O           0     135.066 135.778 143.032  0.00  0.00    -0.273 OA
BRANCH  42  47
ATOM     47  C           0     137.771 133.015 145.500  0.00  0.00     0.014 C 
BRANCH  47  48
ATOM     48  C           0     138.686 131.793 145.608  0.00  0.00     0.001 C 
BRANCH  48  49
ATOM     49  C           0     139.269 131.716 147.021  0.00  0.00     0.000 C 
BRANCH  49  50
ATOM     50  C           0     139.611 130.262 147.353  0.00  0.00     0.000 C 
BRANCH  50  51
ATOM     51  C           0     139.111 129.930 148.761  0.00  0.00     0.000 C 
BRANCH  51  52
ATOM     52  C           0     137.584 130.014 148.792  0.00  0.00     0.000 C 
BRANCH  52  53
ATOM     53  C           0     136.997 129.043 147.766  0.00  0.00     0.007 C 
BRANCH  53  54
ATOM     54  C           0     135.718 129.637 147.174  0.00  0.00     0.077 C 
BRANCH  54  55
ATOM     55  C           0     134.529 128.839 147.644  0.00  0.00     0.123 C 
ATOM     56  C           0     133.789 129.254 148.889  0.00  0.00     0.091 C 
ATOM     57  O           0     134.170 127.868 147.023  0.00  0.00    -0.298 OA
ENDBRANCH  54  55
ENDBRANCH  53  54
ENDBRANCH  52  53
ENDBRANCH  51  52
ENDBRANCH  50  51
ENDBRANCH  49  50
ENDBRANCH  48  49
ENDBRANCH  47  48
ENDBRANCH  42  47
ENDBRANCH  39  40
ENDBRANCH  38  39
ENDBRANCH  35  38
ENDBRANCH  33  34
ENDBRANCH  32  33
ENDBRANCH   2  32
TORSDOF 20
ENDMDL
MODEL 8
REMARK VINA RESULT:      -7.4      5.372     10.204
REMARK  20 active torsions:
REMARK  status: ('A' for Active; 'I' for Inactive)
REMARK    1  A    between atoms: C_6  and  C_7 
REMARK    2  A    between atoms: C_7  and  O_8 
REMARK    3  A    between atoms: O_8  and  C_9 
REMARK       I    between atoms: C_9  and  N_10 
REMARK    4  A    between atoms: N_10  and  C_11 
REMARK    5  A    between atoms: C_11  and  C_12 
REMARK    6  A    between atoms: C_12  and  N_13 
REMARK       I    between atoms: N_13  and  C_14 
REMARK    7  A    between atoms: C_14  and  C_15 
REMARK    8  A    between atoms: C_15  and  C_16 
REMARK    9  A    between atoms: C_16  and  N_17 
REMARK   10  A    between atoms: C_20  and  C_21 
REMARK   11  A    between atoms: C_21  and  C_22 
REMARK   12  A    between atoms: C_22  and  C_23 
REMARK   13  A    between atoms: C_23  and  C_24 
REMARK   14  A    between atoms: C_24  and  C_25 
REMARK   15  A    between atoms: C_25  and  C_26 
REMARK   16  A    between atoms: C_26  and  C_27 
REMARK   17  A    between atoms: C_27  and  C_28 
REMARK   18  A    between atoms: C_28  and  C_29 
REMARK   19  A    between atoms: C_48  and  O_49 
REMARK   20  A    between atoms: C_48  and  O_50 
ROOT
ATOM      1  C           0     133.710 129.069 148.752  0.00  0.00     0.360 C 
ATOM      2  N           0     133.692 130.411 148.870  0.00  0.00    -0.335 N 
ATOM      3  O           0     132.761 128.412 149.133  0.00  0.00    -0.239 OA
ATOM      4  H           0     134.450 130.935 148.566  0.00  0.00     0.164 HD
ENDROOT
BRANCH   1   5
ATOM      5  O           0     134.781 128.454 148.214  0.00  0.00    -0.302 OA
BRANCH   5   6
ATOM      6  C           0     136.090 128.612 148.821  0.00  0.00     0.208 C 
BRANCH   6   7
ATOM      7  C           0     137.143 128.786 147.724  0.00  0.00     0.151 C 
ATOM      8  N           0     138.363 128.094 148.127  0.00  0.00    -0.218 N 
ATOM      9  C           0     139.096 128.614 149.180  0.00  0.00     0.672 C 
ATOM     10  H           0     138.653 127.289 147.669  0.00  0.00     0.178 HD
ATOM     11  N           0     139.833 127.864 149.951  0.00  0.00    -0.235 N 
ATOM     12  N           0     138.992 129.968 149.362  0.00  0.00    -0.183 N 
ATOM     13  H           0     139.880 126.908 149.795  0.00  0.00     0.174 HD
ATOM     14  H           0     140.337 128.263 150.676  0.00  0.00     0.174 HD
ATOM     15  C           0     138.311 130.921 148.484  0.00  0.00     0.217 C 
ATOM     16  C           0     139.483 130.768 150.498  0.00  0.00     0.150 C 
ATOM     17  C           0     137.362 130.268 147.490  0.00  0.00     0.180 C 
ATOM     18  C           0     137.579 131.892 149.426  0.00  0.00     0.209 C 
ATOM     19  N           0     139.278 131.659 147.656  0.00  0.00    -0.191 N 
ATOM     20  N           0     138.029 130.461 146.185  0.00  0.00    -0.216 N 
ATOM     21  C           0     138.956 131.463 146.337  0.00  0.00     0.670 C 
ATOM     22  H           0     137.845 129.969 145.370  0.00  0.00     0.178 HD
ATOM     23  N           0     139.466 132.144 145.349  0.00  0.00    -0.235 N 
ATOM     24  H           0     139.194 131.954 144.437  0.00  0.00     0.174 HD
ATOM     25  H           0     140.117 132.840 145.526  0.00  0.00     0.174 HD
ATOM     26  C           0     138.353 131.791 150.765  0.00  0.00     0.093 C 
ATOM     27  H           0     140.015 132.196 147.986  0.00  0.00     0.180 HD
BRANCH  18  28
ATOM     28  O           0     137.636 133.225 148.916  0.00  0.00    -0.362 OA
ATOM     29  H           0     137.149 133.226 148.081  0.00  0.00     0.213 HD
ENDBRANCH  18  28
BRANCH  18  30
ATOM     30  O           0     136.221 131.483 149.604  0.00  0.00    -0.362 OA
ATOM     31  H           0     135.872 131.990 150.350  0.00  0.00     0.213 HD
ENDBRANCH  18  30
ENDBRANCH   6   7
ENDBRANCH   5   6
ENDBRANCH   1   5
BRANCH   2  32
ATOM     32  C           0     132.528 131.080 149.456  0.00  0.00     0.144 C 
BRANCH  32  33
ATOM     33  C           0     132.696 132.595 149.339  0.00  0.00     0.142 C 
BRANCH  33  34
ATOM     34  N           0     133.261 132.924 148.027  0.00  0.00    -0.359 N 
ATOM     35  C           0     133.010 134.124 147.467  0.00  0.00     0.219 C 
ATOM     36  O           0     132.317 134.932 148.049  0.00  0.00    -0.274 OA
ATOM     37  H           0     133.815 132.277 147.562  0.00  0.00     0.162 HD
BRANCH  35  38
ATOM     38  C           0     133.591 134.461 146.118  0.00  0.00     0.123 C 
BRANCH  38  39
ATOM     39  C           0     135.093 134.171 146.123  0.00  0.00     0.144 C 
BRANCH  39  40
ATOM     40  N           0     135.429 133.314 144.982  0.00  0.00    -0.288 N 
ATOM     41  C           0     135.927 133.794 143.837  0.00  0.00     0.231 A 
ATOM     42  C           0     136.162 132.649 142.877  0.00  0.00     0.087 A 
ATOM     43  O           0     136.160 134.962 143.607  0.00  0.00    -0.273 OA
ATOM     44  C           0     135.699 131.410 143.672  0.00  0.00     0.117 A 
ATOM     45  C           0     135.257 131.986 144.999  0.00  0.00     0.227 A 
ATOM     46  O           0     134.816 131.347 145.930  0.00  0.00    -0.273 OA
BRANCH  42  47
ATOM     47  C           0     135.315 132.827 141.616  0.00  0.00     0.014 C 
BRANCH  47  48
ATOM     48  C           0     133.856 132.487 141.930  0.00  0.00     0.001 C 
BRANCH  48  49
ATOM     49  C           0     132.934 133.348 141.064  0.00  0.00     0.000 C 
BRANCH  49  50
ATOM     50  C           0     133.775 134.333 140.248  0.00  0.00     0.000 C 
BRANCH  50  51
ATOM     51  C           0     132.887 135.024 139.211  0.00  0.00     0.000 C 
BRANCH  51  52
ATOM     52  C           0     133.639 135.128 137.883  0.00  0.00     0.000 C 
BRANCH  52  53
ATOM     53  C           0     132.715 134.709 136.739  0.00  0.00     0.007 C 
BRANCH  53  54
ATOM     54  C           0     132.713 135.794 135.660  0.00  0.00     0.077 C 
BRANCH  54  55
ATOM     55  C           0     133.601 135.369 134.519  0.00  0.00     0.123 C 
ATOM     56  C           0     134.105 133.950 134.446  0.00  0.00     0.091 C 
ATOM     57  O           0     133.908 136.163 133.663  0.00  0.00    -0.298 OA
ENDBRANCH  54  55
ENDBRANCH  53  54
ENDBRANCH  52  53
ENDBRANCH  51  52
ENDBRANCH  50  51
ENDBRANCH  49  50
ENDBRANCH  48  49
ENDBRANCH  47  48
ENDBRANCH  42  47
ENDBRANCH  39  40
ENDBRANCH  38  39
ENDBRANCH  35  38
ENDBRANCH  33  34
ENDBRANCH  32  33
ENDBRANCH   2  32
TORSDOF 20
ENDMDL
MODEL 9
REMARK VINA RESULT:      -7.3      3.052     13.038
REMARK  20 active torsions:
REMARK  status: ('A' for Active; 'I' for Inactive)
REMARK    1  A    between atoms: C_6  and  C_7 
REMARK    2  A    between atoms: C_7  and  O_8 
REMARK    3  A    between atoms: O_8  and  C_9 
REMARK       I    between atoms: C_9  and  N_10 
REMARK    4  A    between atoms: N_10  and  C_11 
REMARK    5  A    between atoms: C_11  and  C_12 
REMARK    6  A    between atoms: C_12  and  N_13 
REMARK       I    between atoms: N_13  and  C_14 
REMARK    7  A    between atoms: C_14  and  C_15 
REMARK    8  A    between atoms: C_15  and  C_16 
REMARK    9  A    between atoms: C_16  and  N_17 
REMARK   10  A    between atoms: C_20  and  C_21 
REMARK   11  A    between atoms: C_21  and  C_22 
REMARK   12  A    between atoms: C_22  and  C_23 
REMARK   13  A    between atoms: C_23  and  C_24 
REMARK   14  A    between atoms: C_24  and  C_25 
REMARK   15  A    between atoms: C_25  and  C_26 
REMARK   16  A    between atoms: C_26  and  C_27 
REMARK   17  A    between atoms: C_27  and  C_28 
REMARK   18  A    between atoms: C_28  and  C_29 
REMARK   19  A    between atoms: C_48  and  O_49 
REMARK   20  A    between atoms: C_48  and  O_50 
ROOT
ATOM      1  C           0     131.919 134.746 136.095  0.00  0.00     0.360 C 
ATOM      2  N           0     132.647 135.654 136.775  0.00  0.00    -0.335 N 
ATOM      3  O           0     132.084 133.559 136.298  0.00  0.00    -0.239 OA
ATOM      4  H           0     132.515 136.601 136.613  0.00  0.00     0.164 HD
ENDROOT
BRANCH   1   5
ATOM      5  O           0     131.010 135.154 135.189  0.00  0.00    -0.302 OA
BRANCH   5   6
ATOM      6  C           0     130.417 134.196 134.273  0.00  0.00     0.208 C 
BRANCH   6   7
ATOM      7  C           0     131.298 134.069 133.028  0.00  0.00     0.151 C 
ATOM      8  N           0     130.468 134.259 131.842  0.00  0.00    -0.218 N 
ATOM      9  C           0     129.545 133.278 131.524  0.00  0.00     0.672 C 
ATOM     10  H           0     130.561 135.052 131.291  0.00  0.00     0.178 HD
ATOM     11  N           0     128.443 133.544 130.878  0.00  0.00    -0.235 N 
ATOM     12  N           0     129.861 132.010 131.935  0.00  0.00    -0.183 N 
ATOM     13  H           0     128.249 134.453 130.606  0.00  0.00     0.174 HD
ATOM     14  H           0     127.820 132.831 130.668  0.00  0.00     0.174 HD
ATOM     15  C           0     131.121 131.574 132.539  0.00  0.00     0.217 C 
ATOM     16  C           0     129.001 130.813 131.922  0.00  0.00     0.150 C 
ATOM     17  C           0     131.983 132.717 133.052  0.00  0.00     0.180 C 
ATOM     18  C           0     130.719 130.607 133.667  0.00  0.00     0.209 C 
ATOM     19  N           0     131.963 130.875 131.557  0.00  0.00    -0.191 N 
ATOM     20  N           0     133.132 132.738 132.121  0.00  0.00    -0.216 N 
ATOM     21  C           0     133.170 131.523 131.481  0.00  0.00     0.670 C 
ATOM     22  H           0     133.747 133.476 131.988  0.00  0.00     0.178 HD
ATOM     23  N           0     134.222 131.047 130.877  0.00  0.00    -0.235 N 
ATOM     24  H           0     135.045 131.559 130.861  0.00  0.00     0.174 HD
ATOM     25  H           0     134.180 130.180 130.444  0.00  0.00     0.174 HD
ATOM     26  C           0     129.311 130.102 133.261  0.00  0.00     0.093 C 
ATOM     27  H           0     131.710 130.086 131.050  0.00  0.00     0.180 HD
BRANCH  18  28
ATOM     28  O           0     131.637 129.515 133.743  0.00  0.00    -0.362 OA
ATOM     29  H           0     131.913 129.318 132.838  0.00  0.00     0.213 HD
ENDBRANCH  18  28
BRANCH  18  30
ATOM     30  O           0     130.660 131.298 134.917  0.00  0.00    -0.362 OA
ATOM     31  H           0     131.412 131.904 134.936  0.00  0.00     0.213 HD
ENDBRANCH  18  30
ENDBRANCH   6   7
ENDBRANCH   5   6
ENDBRANCH   1   5
BRANCH   2  32
ATOM     32  C           0     133.636 135.210 137.761  0.00  0.00     0.144 C 
BRANCH  32  33
ATOM     33  C           0     132.962 135.048 139.123  0.00  0.00     0.142 C 
BRANCH  33  34
ATOM     34  N           0     133.827 134.262 140.007  0.00  0.00    -0.359 N 
ATOM     35  C           0     133.286 133.506 140.983  0.00  0.00     0.219 C 
ATOM     36  O           0     132.082 133.477 141.130  0.00  0.00    -0.274 OA
ATOM     37  H           0     134.790 134.287 139.890  0.00  0.00     0.162 HD
BRANCH  35  38
ATOM     38  C           0     134.176 132.699 141.892  0.00  0.00     0.123 C 
BRANCH  38  39
ATOM     39  C           0     135.310 133.585 142.414  0.00  0.00     0.144 C 
BRANCH  39  40
ATOM     40  N           0     135.514 133.327 143.841  0.00  0.00    -0.288 N 
ATOM     41  C           0     136.336 132.374 144.296  0.00  0.00     0.231 A 
ATOM     42  C           0     136.316 132.379 145.808  0.00  0.00     0.087 A 
ATOM     43  O           0     136.998 131.630 143.604  0.00  0.00    -0.273 OA
ATOM     44  C           0     135.322 133.506 146.153  0.00  0.00     0.117 A 
ATOM     45  C           0     134.889 134.023 144.800  0.00  0.00     0.227 A 
ATOM     46  O           0     134.101 134.925 144.611  0.00  0.00    -0.273 OA
BRANCH  42  47
ATOM     47  C           0     135.813 131.035 146.339  0.00  0.00     0.014 C 
BRANCH  47  48
ATOM     48  C           0     135.259 131.221 147.753  0.00  0.00     0.001 C 
BRANCH  48  49
ATOM     49  C           0     135.696 130.045 148.630  0.00  0.00     0.000 C 
BRANCH  49  50
ATOM     50  C           0     137.159 130.230 149.039  0.00  0.00     0.000 C 
BRANCH  50  51
ATOM     51  C           0     138.037 129.264 148.240  0.00  0.00     0.000 C 
BRANCH  51  52
ATOM     52  C           0     139.461 129.289 148.799  0.00  0.00     0.000 C 
BRANCH  52  53
ATOM     53  C           0     140.432 129.736 147.704  0.00  0.00     0.007 C 
BRANCH  53  54
ATOM     54  C           0     139.679 130.567 146.663  0.00  0.00     0.077 C 
BRANCH  54  55
ATOM     55  C           0     140.185 131.986 146.693  0.00  0.00     0.123 C 
ATOM     56  C           0     139.532 132.998 147.599  0.00  0.00     0.091 C 
ATOM     57  O           0     141.113 132.312 145.993  0.00  0.00    -0.298 OA
ENDBRANCH  54  55
ENDBRANCH  53  54
ENDBRANCH  52  53
ENDBRANCH  51  52
ENDBRANCH  50  51
ENDBRANCH  49  50
ENDBRANCH  48  49
ENDBRANCH  47  48
ENDBRANCH  42  47
ENDBRANCH  39  40
ENDBRANCH  38  39
ENDBRANCH  35  38
ENDBRANCH  33  34
ENDBRANCH  32  33
ENDBRANCH   2  32
TORSDOF 20
ENDMDL
