# created with PyMOL 2.3.4
@<TRIPOS>MOLECULE
ligand_out_0001
57 60 1                 
SMALL
USER_CHARGES
@<TRIPOS>ATOM
1	   N	133.714	135.711	138.561	N.pl3	1	UNK0	-0.335	
2	   N	135.293	135.716	143.359	N.3	1	UNK0	-0.218	
3	   N	137.612	135.362	143.175	N.3	1	UNK0	-0.235	
4	   N	136.224	133.697	144.059	N.3	1	UNK0	-0.183	
5	   N	134.981	133.208	146.075	N.3	1	UNK0	-0.191	
6	   N	133.320	134.630	145.461	N.3	1	UNK0	-0.216	
7	   N	133.491	133.997	147.734	N.3	1	UNK0	-0.235	
8	   N	131.960	134.934	135.386	N.pl3	1	UNK0	-0.359	
9	   N	132.818	131.709	132.790	N.pl3	1	UNK0	-0.288	
10	   C	133.259	134.892	139.530	C.2	1	UNK0	0.360	
11	   C	134.016	134.383	141.776	C.2	1	UNK0	0.208	
12	   C	134.015	135.041	143.157	C.3	1	UNK0	0.151	
13	   C	136.427	134.940	143.519	C.3	1	UNK0	0.672	
14	   C	134.970	133.174	144.605	C.3	1	UNK0	0.217	
15	   C	137.187	132.586	144.162	C.3	1	UNK0	0.150	
16	   C	133.743	133.978	144.203	C.3	1	UNK0	0.180	
17	   C	134.889	131.717	144.115	C.3	1	UNK0	0.209	
18	   C	133.906	133.947	146.499	C.3	1	UNK0	0.670	
19	   C	136.358	131.325	143.819	C.3	1	UNK0	0.093	
20	   C	133.605	135.313	137.155	C.3	1	UNK0	0.144	
21	   C	132.211	135.662	136.632	C.3	1	UNK0	0.142	
22	   C	131.449	133.686	135.425	C.2	1	UNK0	0.219	
23	   C	131.192	132.938	134.143	C.3	1	UNK0	0.123	
24	   C	132.418	133.047	133.234	C.3	1	UNK0	0.144	
25	   C	133.664	130.937	133.482	C.2	1	UNK0	0.231	
26	   C	133.856	129.628	132.750	C.3	1	UNK0	0.087	
27	   C	132.972	129.781	131.495	C.3	1	UNK0	0.117	
28	   C	132.369	131.159	131.654	C.2	1	UNK0	0.227	
29	   C	135.323	129.448	132.355	C.3	1	UNK0	0.014	
30	   C	135.420	128.466	131.185	C.3	1	UNK0	0.001	
31	   C	135.744	127.068	131.718	C.3	1	UNK0	0.000	
32	   C	134.514	126.170	131.576	C.3	1	UNK0	0.000	
33	   C	133.876	125.958	132.950	C.3	1	UNK0	0.000	
34	   C	132.416	125.533	132.775	C.3	1	UNK0	0.000	
35	   C	131.540	126.775	132.605	C.3	1	UNK0	0.007	
36	   C	130.298	126.415	131.786	C.3	1	UNK0	0.077	
37	   C	129.215	127.431	132.045	C.2	1	UNK0	0.123	
38	   C	129.404	128.861	131.610	C.3	1	UNK0	0.091	
39	   O	132.758	133.824	139.238	O.co2	1	UNK0	-0.239	
40	   O	133.358	135.258	140.822	O.2	1	UNK0	-0.302	
41	   O	134.344	130.875	145.133	O.2	1	UNK0	-0.362	
42	   O	134.101	131.636	142.925	O.2	1	UNK0	-0.362	
43	   O	131.197	133.168	136.492	O.2	1	UNK0	-0.274	
44	   O	134.188	131.238	134.533	O.2	1	UNK0	-0.273	
45	   O	131.600	131.683	130.876	O.2	1	UNK0	-0.273	
46	   O	128.196	127.098	132.601	O.2	1	UNK0	-0.298	
47	   H	134.113	136.564	138.795	 H	1	UNK0	0.164	
48	   H	135.347	136.685	143.381	 H	1	UNK0	0.178	
49	   H	137.720	136.246	142.793	 H	1	UNK0	0.174	
50	   H	138.386	134.792	143.305	 H	1	UNK0	0.174	
51	   H	132.735	135.400	145.538	 H	1	UNK0	0.178	
52	   H	132.723	134.542	147.966	 H	1	UNK0	0.174	
53	   H	133.951	133.489	148.420	 H	1	UNK0	0.174	
54	   H	135.635	132.777	146.649	 H	1	UNK0	0.180	
55	   H	133.620	131.367	145.544	 H	1	UNK0	0.213	
56	   H	133.618	132.470	142.853	 H	1	UNK0	0.213	
57	   H	132.163	135.348	134.533	 H	1	UNK0	0.162	
@<TRIPOS>BOND
1 1 20 1
2 1 47 1
3 2 13 1
4 2 48 1
5 3 49 1
6 3 50 1
7 4 14 1
8 4 15 1
9 5 18 1
10 5 54 1
11 6 18 1
12 6 51 1
13 7 52 1
14 7 53 1
15 8 22 1
16 8 57 1
17 9 25 1
18 9 28 1
19 1 10 1
20 10 39 2
21 10 40 2
22 11 12 1
23 2 12 1
24 12 16 1
25 3 13 1
26 4 13 1
27 5 14 1
28 14 16 1
29 14 17 1
30 15 19 1
31 6 16 1
32 17 19 1
33 17 41 2
34 17 42 2
35 7 18 1
36 20 21 1
37 8 21 1
38 22 23 1
39 22 43 2
40 23 24 1
41 9 24 1
42 25 26 1
43 25 44 2
44 26 27 1
45 26 29 1
46 27 28 1
47 28 45 2
48 29 30 1
49 30 31 1
50 31 32 1
51 32 33 1
52 33 34 1
53 34 35 1
54 35 36 1
55 36 37 1
56 37 38 1
57 37 46 2
58 11 40 2
59 41 55 1
60 42 56 1
@<TRIPOS>SUBSTRUCTURE
1	UNK0	1	GROUP	1 ****	UNK
