MODEL 1
REMARK VINA RESULT:      -7.0      0.000      0.000
REMARK  5 active torsions:
REMARK  status: ('A' for Active; 'I' for Inactive)
REMARK    1  A    between atoms: C_6  and  C_7 
REMARK    2  A    between atoms: C_7  and  O_8 
REMARK    3  A    between atoms: O_8  and  C_9 
REMARK       I    between atoms: C_9  and  N_10 
REMARK    4  A    between atoms: C_24  and  O_25 
REMARK    5  A    between atoms: C_24  and  O_26 
ROOT
ATOM      1  N           0     138.954 133.229 142.917  0.00  0.00    -0.235 N 
ATOM      2  H           0     139.315 133.732 142.170  0.00  0.00     0.174 HD
ATOM      3  H           0     139.419 132.441 143.240  0.00  0.00     0.174 HD
ATOM      4  C           0     137.849 133.614 143.490  0.00  0.00     0.672 C 
ATOM      5  N           0     137.154 134.734 143.068  0.00  0.00    -0.218 N 
ATOM      6  C           0     135.707 134.767 143.265  0.00  0.00     0.151 C 
ATOM      7  C           0     135.306 134.443 144.691  0.00  0.00     0.180 C 
ATOM      8  N           0     135.542 135.630 145.542  0.00  0.00    -0.216 N 
ATOM      9  C           0     136.048 135.187 146.740  0.00  0.00     0.670 C 
ATOM     10  N           0     136.037 135.884 147.842  0.00  0.00    -0.235 N 
ATOM     11  H           0     135.656 136.776 147.848  0.00  0.00     0.174 HD
ATOM     12  H           0     136.411 135.511 148.655  0.00  0.00     0.174 HD
ATOM     13  C           0     136.144 133.356 145.341  0.00  0.00     0.217 C 
ATOM     14  N           0     136.563 133.919 146.634  0.00  0.00    -0.191 N 
ATOM     15  N           0     137.298 132.933 144.547  0.00  0.00    -0.179 N 
ATOM     16  C           0     137.704 131.618 145.065  0.00  0.00     0.106 C 
ATOM     17  C           0     138.813 131.785 146.106  0.00  0.00     0.033 C 
ATOM     18  C           0     136.454 130.994 145.721  0.00  0.00     0.098 C 
ATOM     19  C           0     135.336 132.062 145.566  0.00  0.00     0.210 C 
ATOM     20  H           0     137.617 135.479 142.654  0.00  0.00     0.178 HD
ATOM     21  H           0     135.370 136.553 145.299  0.00  0.00     0.178 HD
ATOM     22  H           0     137.108 133.471 147.300  0.00  0.00     0.180 HD
ENDROOT
BRANCH   6  23
ATOM     23  C           0     135.058 133.748 142.327  0.00  0.00     0.208 C 
BRANCH  23  24
ATOM     24  O           0     133.623 133.963 142.296  0.00  0.00    -0.302 OA
BRANCH  24  25
ATOM     25  C           0     132.829 133.114 141.616  0.00  0.00     0.358 C 
ATOM     26  N           0     132.854 131.796 141.898  0.00  0.00    -0.346 N 
ATOM     27  H           0     133.446 131.459 142.589  0.00  0.00     0.161 HD
ATOM     28  H           0     132.282 131.185 141.408  0.00  0.00     0.161 HD
ATOM     29  O           0     132.089 133.536 140.750  0.00  0.00    -0.239 OA
ENDBRANCH  24  25
ENDBRANCH  23  24
ENDBRANCH   6  23
BRANCH  19  30
ATOM     30  O           0     134.547 132.147 146.754  0.00  0.00    -0.362 OA
ATOM     31  H           0     134.361 133.084 146.899  0.00  0.00     0.213 HD
ENDBRANCH  19  30
BRANCH  19  32
ATOM     32  O           0     134.517 131.778 144.430  0.00  0.00    -0.362 OA
ATOM     33  H           0     134.343 132.622 143.992  0.00  0.00     0.213 HD
ENDBRANCH  19  32
TORSDOF 5
ENDMDL
MODEL 2
REMARK VINA RESULT:      -6.7      2.169      3.682
REMARK  5 active torsions:
REMARK  status: ('A' for Active; 'I' for Inactive)
REMARK    1  A    between atoms: C_6  and  C_7 
REMARK    2  A    between atoms: C_7  and  O_8 
REMARK    3  A    between atoms: O_8  and  C_9 
REMARK       I    between atoms: C_9  and  N_10 
REMARK    4  A    between atoms: C_24  and  O_25 
REMARK    5  A    between atoms: C_24  and  O_26 
ROOT
ATOM      1  N           0     134.480 131.507 146.059  0.00  0.00    -0.235 N 
ATOM      2  H           0     134.039 130.655 145.917  0.00  0.00     0.174 HD
ATOM      3  H           0     134.541 131.877 146.954  0.00  0.00     0.174 HD
ATOM      4  C           0     134.997 132.150 145.051  0.00  0.00     0.672 C 
ATOM      5  N           0     134.941 131.659 143.759  0.00  0.00    -0.218 N 
ATOM      6  C           0     134.932 132.614 142.654  0.00  0.00     0.151 C 
ATOM      7  C           0     136.056 133.627 142.750  0.00  0.00     0.180 C 
ATOM      8  N           0     137.319 132.993 142.313  0.00  0.00    -0.216 N 
ATOM      9  C           0     138.316 133.435 143.149  0.00  0.00     0.670 C 
ATOM     10  N           0     139.587 133.383 142.863  0.00  0.00    -0.235 N 
ATOM     11  H           0     139.879 133.013 142.015  0.00  0.00     0.174 HD
ATOM     12  H           0     140.240 133.713 143.499  0.00  0.00     0.174 HD
ATOM     13  C           0     136.353 134.094 144.165  0.00  0.00     0.217 C 
ATOM     14  N           0     137.808 133.939 144.320  0.00  0.00    -0.191 N 
ATOM     15  N           0     135.627 133.361 145.203  0.00  0.00    -0.179 N 
ATOM     16  C           0     135.656 134.203 146.408  0.00  0.00     0.106 C 
ATOM     17  C           0     136.826 133.793 147.305  0.00  0.00     0.033 C 
ATOM     18  C           0     135.844 135.658 145.929  0.00  0.00     0.098 C 
ATOM     19  C           0     135.953 135.567 144.382  0.00  0.00     0.210 C 
ATOM     20  H           0     134.910 130.704 143.591  0.00  0.00     0.178 HD
ATOM     21  H           0     137.424 132.376 141.571  0.00  0.00     0.178 HD
ATOM     22  H           0     138.321 134.158 145.114  0.00  0.00     0.180 HD
ENDROOT
BRANCH   6  23
ATOM     23  C           0     133.595 133.359 142.656  0.00  0.00     0.208 C 
BRANCH  23  24
ATOM     24  O           0     133.646 134.448 141.698  0.00  0.00    -0.302 OA
BRANCH  24  25
ATOM     25  C           0     133.203 134.261 140.440  0.00  0.00     0.358 C 
ATOM     26  N           0     133.947 134.673 139.395  0.00  0.00    -0.346 N 
ATOM     27  H           0     134.801 135.106 139.549  0.00  0.00     0.161 HD
ATOM     28  H           0     133.627 134.537 138.489  0.00  0.00     0.161 HD
ATOM     29  O           0     132.133 133.718 140.248  0.00  0.00    -0.239 OA
ENDBRANCH  24  25
ENDBRANCH  23  24
ENDBRANCH   6  23
BRANCH  19  30
ATOM     30  O           0     136.961 136.453 143.891  0.00  0.00    -0.362 OA
ATOM     31  H           0     137.486 136.728 144.654  0.00  0.00     0.213 HD
ENDBRANCH  19  30
BRANCH  19  32
ATOM     32  O           0     134.692 135.841 143.767  0.00  0.00    -0.362 OA
ATOM     33  H           0     134.030 135.322 144.243  0.00  0.00     0.213 HD
ENDBRANCH  19  32
TORSDOF 5
ENDMDL
MODEL 3
REMARK VINA RESULT:      -6.7      2.602      4.812
REMARK  5 active torsions:
REMARK  status: ('A' for Active; 'I' for Inactive)
REMARK    1  A    between atoms: C_6  and  C_7 
REMARK    2  A    between atoms: C_7  and  O_8 
REMARK    3  A    between atoms: O_8  and  C_9 
REMARK       I    between atoms: C_9  and  N_10 
REMARK    4  A    between atoms: C_24  and  O_25 
REMARK    5  A    between atoms: C_24  and  O_26 
ROOT
ATOM      1  N           0     134.420 131.188 144.369  0.00  0.00    -0.235 N 
ATOM      2  H           0     133.895 130.722 145.039  0.00  0.00     0.174 HD
ATOM      3  H           0     134.471 130.840 143.465  0.00  0.00     0.174 HD
ATOM      4  C           0     135.049 132.286 144.681  0.00  0.00     0.672 C 
ATOM      5  N           0     135.000 132.825 145.955  0.00  0.00    -0.218 N 
ATOM      6  C           0     136.141 133.609 146.420  0.00  0.00     0.151 C 
ATOM      7  C           0     136.541 134.694 145.439  0.00  0.00     0.180 C 
ATOM      8  N           0     135.597 135.826 145.556  0.00  0.00    -0.216 N 
ATOM      9  C           0     135.347 136.291 144.287  0.00  0.00     0.670 C 
ATOM     10  N           0     134.865 137.473 144.023  0.00  0.00    -0.235 N 
ATOM     11  H           0     134.659 138.086 144.746  0.00  0.00     0.174 HD
ATOM     12  H           0     134.712 137.739 143.103  0.00  0.00     0.174 HD
ATOM     13  C           0     136.437 134.282 143.980  0.00  0.00     0.217 C 
ATOM     14  N           0     135.669 135.357 143.334  0.00  0.00    -0.191 N 
ATOM     15  N           0     135.807 132.978 143.769  0.00  0.00    -0.179 N 
ATOM     16  C           0     136.196 132.539 142.421  0.00  0.00     0.106 C 
ATOM     17  C           0     135.117 132.931 141.410  0.00  0.00     0.033 C 
ATOM     18  C           0     137.520 133.257 142.084  0.00  0.00     0.098 C 
ATOM     19  C           0     137.823 134.152 143.318  0.00  0.00     0.210 C 
ATOM     20  H           0     134.227 132.686 146.523  0.00  0.00     0.178 HD
ATOM     21  H           0     135.222 136.177 146.379  0.00  0.00     0.178 HD
ATOM     22  H           0     135.433 135.402 142.394  0.00  0.00     0.180 HD
ENDROOT
BRANCH   6  23
ATOM     23  C           0     137.331 132.672 146.631  0.00  0.00     0.208 C 
BRANCH  23  24
ATOM     24  O           0     136.956 131.611 147.548  0.00  0.00    -0.302 OA
BRANCH  24  25
ATOM     25  C           0     137.034 130.324 147.159  0.00  0.00     0.358 C 
ATOM     26  N           0     138.195 129.651 147.283  0.00  0.00    -0.346 N 
ATOM     27  H           0     138.975 130.095 147.652  0.00  0.00     0.161 HD
ATOM     28  H           0     138.250 128.724 147.001  0.00  0.00     0.161 HD
ATOM     29  O           0     136.057 129.770 146.696  0.00  0.00    -0.239 OA
ENDBRANCH  24  25
ENDBRANCH  23  24
ENDBRANCH   6  23
BRANCH  19  30
ATOM     30  O           0     138.321 135.427 142.909  0.00  0.00    -0.362 OA
ATOM     31  H           0     138.341 135.422 141.943  0.00  0.00     0.213 HD
ENDBRANCH  19  30
BRANCH  19  32
ATOM     32  O           0     138.743 133.505 144.200  0.00  0.00    -0.362 OA
ATOM     33  H           0     138.561 133.840 145.088  0.00  0.00     0.213 HD
ENDBRANCH  19  32
TORSDOF 5
ENDMDL
MODEL 4
REMARK VINA RESULT:      -6.6      2.774      5.269
REMARK  5 active torsions:
REMARK  status: ('A' for Active; 'I' for Inactive)
REMARK    1  A    between atoms: C_6  and  C_7 
REMARK    2  A    between atoms: C_7  and  O_8 
REMARK    3  A    between atoms: O_8  and  C_9 
REMARK       I    between atoms: C_9  and  N_10 
REMARK    4  A    between atoms: C_24  and  O_25 
REMARK    5  A    between atoms: C_24  and  O_26 
ROOT
ATOM      1  N           0     134.324 130.398 144.858  0.00  0.00    -0.235 N 
ATOM      2  H           0     134.117 129.785 145.581  0.00  0.00     0.174 HD
ATOM      3  H           0     133.898 130.289 143.993  0.00  0.00     0.174 HD
ATOM      4  C           0     135.169 131.371 145.050  0.00  0.00     0.672 C 
ATOM      5  N           0     135.797 131.571 146.267  0.00  0.00    -0.218 N 
ATOM      6  C           0     137.117 132.195 146.272  0.00  0.00     0.151 C 
ATOM      7  C           0     137.154 133.487 145.479  0.00  0.00     0.180 C 
ATOM      8  N           0     136.539 134.566 146.282  0.00  0.00    -0.216 N 
ATOM      9  C           0     135.789 135.341 145.430  0.00  0.00     0.670 C 
ATOM     10  N           0     135.405 136.558 145.695  0.00  0.00    -0.235 N 
ATOM     11  H           0     135.647 136.971 146.538  0.00  0.00     0.174 HD
ATOM     12  H           0     134.877 137.051 145.048  0.00  0.00     0.174 HD
ATOM     13  C           0     136.323 133.460 144.208  0.00  0.00     0.217 C 
ATOM     14  N           0     135.496 134.674 144.266  0.00  0.00    -0.191 N 
ATOM     15  N           0     135.497 132.261 144.057  0.00  0.00    -0.179 N 
ATOM     16  C           0     135.145 132.172 142.632  0.00  0.00     0.106 C 
ATOM     17  C           0     133.782 132.823 142.387  0.00  0.00     0.033 C 
ATOM     18  C           0     136.240 132.933 141.855  0.00  0.00     0.098 C 
ATOM     19  C           0     137.205 133.481 142.943  0.00  0.00     0.210 C 
ATOM     20  H           0     135.370 131.304 147.096  0.00  0.00     0.178 HD
ATOM     21  H           0     136.645 134.702 147.236  0.00  0.00     0.178 HD
ATOM     22  H           0     134.855 134.959 143.595  0.00  0.00     0.180 HD
ENDROOT
BRANCH   6  23
ATOM     23  C           0     138.128 131.217 145.669  0.00  0.00     0.208 C 
BRANCH  23  24
ATOM     24  O           0     139.399 131.892 145.475  0.00  0.00    -0.302 OA
BRANCH  24  25
ATOM     25  C           0     140.425 131.650 146.312  0.00  0.00     0.358 C 
ATOM     26  N           0     140.681 130.391 146.718  0.00  0.00    -0.346 N 
ATOM     27  H           0     140.125 129.659 146.408  0.00  0.00     0.161 HD
ATOM     28  H           0     141.420 130.217 147.322  0.00  0.00     0.161 HD
ATOM     29  O           0     141.120 132.567 146.701  0.00  0.00    -0.239 OA
ENDBRANCH  24  25
ENDBRANCH  23  24
ENDBRANCH   6  23
BRANCH  19  30
ATOM     30  O           0     137.621 134.811 142.627  0.00  0.00    -0.362 OA
ATOM     31  H           0     136.969 135.169 142.011  0.00  0.00     0.213 HD
ENDBRANCH  19  30
BRANCH  19  32
ATOM     32  O           0     138.333 132.619 143.102  0.00  0.00    -0.362 OA
ATOM     33  H           0     138.597 132.338 142.215  0.00  0.00     0.213 HD
ENDBRANCH  19  32
TORSDOF 5
ENDMDL
MODEL 5
REMARK VINA RESULT:      -6.5      8.752     11.074
REMARK  5 active torsions:
REMARK  status: ('A' for Active; 'I' for Inactive)
REMARK    1  A    between atoms: C_6  and  C_7 
REMARK    2  A    between atoms: C_7  and  O_8 
REMARK    3  A    between atoms: O_8  and  C_9 
REMARK       I    between atoms: C_9  and  N_10 
REMARK    4  A    between atoms: C_24  and  O_25 
REMARK    5  A    between atoms: C_24  and  O_26 
ROOT
ATOM      1  N           0     133.906 132.379 132.773  0.00  0.00    -0.235 N 
ATOM      2  H           0     133.772 131.563 132.266  0.00  0.00     0.174 HD
ATOM      3  H           0     134.801 132.734 132.891  0.00  0.00     0.174 HD
ATOM      4  C           0     132.884 133.001 133.289  0.00  0.00     0.672 C 
ATOM      5  N           0     131.589 132.538 133.141  0.00  0.00    -0.218 N 
ATOM      6  C           0     130.618 132.846 134.188  0.00  0.00     0.151 C 
ATOM      7  C           0     130.578 134.323 134.528  0.00  0.00     0.180 C 
ATOM      8  N           0     129.818 135.041 133.483  0.00  0.00    -0.216 N 
ATOM      9  C           0     130.463 136.230 133.243  0.00  0.00     0.670 C 
ATOM     10  N           0     129.909 137.261 132.669  0.00  0.00    -0.235 N 
ATOM     11  H           0     128.985 137.217 132.380  0.00  0.00     0.174 HD
ATOM     12  H           0     130.423 138.072 132.530  0.00  0.00     0.174 HD
ATOM     13  C           0     131.938 135.000 134.519  0.00  0.00     0.217 C 
ATOM     14  N           0     131.763 136.198 133.685  0.00  0.00    -0.191 N 
ATOM     15  N           0     133.024 134.157 134.017  0.00  0.00    -0.179 N 
ATOM     16  C           0     134.277 134.758 134.498  0.00  0.00     0.106 C 
ATOM     17  C           0     134.856 135.687 133.429  0.00  0.00     0.033 C 
ATOM     18  C           0     133.925 135.566 135.765  0.00  0.00     0.098 C 
ATOM     19  C           0     132.390 135.405 135.937  0.00  0.00     0.210 C 
ATOM     20  H           0     131.332 132.021 132.361  0.00  0.00     0.178 HD
ATOM     21  H           0     129.010 134.730 133.045  0.00  0.00     0.178 HD
ATOM     22  H           0     132.447 136.856 133.483  0.00  0.00     0.180 HD
ENDROOT
BRANCH   6  23
ATOM     23  C           0     130.984 132.059 135.448  0.00  0.00     0.208 C 
BRANCH  23  24
ATOM     24  O           0     130.160 132.508 136.556  0.00  0.00    -0.302 OA
BRANCH  24  25
ATOM     25  C           0     130.284 131.929 137.765  0.00  0.00     0.358 C 
ATOM     26  N           0     130.891 132.591 138.769  0.00  0.00    -0.346 N 
ATOM     27  H           0     131.241 133.484 138.620  0.00  0.00     0.161 HD
ATOM     28  H           0     130.981 132.174 139.641  0.00  0.00     0.161 HD
ATOM     29  O           0     129.847 130.811 137.951  0.00  0.00    -0.239 OA
ENDBRANCH  24  25
ENDBRANCH  23  24
ENDBRANCH   6  23
BRANCH  19  30
ATOM     30  O           0     131.791 136.640 136.335  0.00  0.00    -0.362 OA
ATOM     31  H           0     132.476 137.318 136.260  0.00  0.00     0.213 HD
ENDBRANCH  19  30
BRANCH  19  32
ATOM     32  O           0     132.091 134.369 136.875  0.00  0.00    -0.362 OA
ATOM     33  H           0     131.743 133.624 136.367  0.00  0.00     0.213 HD
ENDBRANCH  19  32
TORSDOF 5
ENDMDL
MODEL 6
REMARK VINA RESULT:      -6.4      3.712      5.974
REMARK  5 active torsions:
REMARK  status: ('A' for Active; 'I' for Inactive)
REMARK    1  A    between atoms: C_6  and  C_7 
REMARK    2  A    between atoms: C_7  and  O_8 
REMARK    3  A    between atoms: O_8  and  C_9 
REMARK       I    between atoms: C_9  and  N_10 
REMARK    4  A    between atoms: C_24  and  O_25 
REMARK    5  A    between atoms: C_24  and  O_26 
ROOT
ATOM      1  N           0     134.098 131.985 149.199  0.00  0.00    -0.235 N 
ATOM      2  H           0     133.648 131.659 149.994  0.00  0.00     0.174 HD
ATOM      3  H           0     133.951 132.895 148.896  0.00  0.00     0.174 HD
ATOM      4  C           0     134.906 131.202 148.541  0.00  0.00     0.672 C 
ATOM      5  N           0     135.153 129.899 148.937  0.00  0.00    -0.218 N 
ATOM      6  C           0     135.503 128.918 147.914  0.00  0.00     0.151 C 
ATOM      7  C           0     136.635 129.386 147.021  0.00  0.00     0.180 C 
ATOM      8  N           0     137.917 129.229 147.741  0.00  0.00    -0.216 N 
ATOM      9  C           0     138.692 130.327 147.452  0.00  0.00     0.670 C 
ATOM     10  N           0     139.986 130.369 147.605  0.00  0.00    -0.235 N 
ATOM     11  H           0     140.461 129.594 147.943  0.00  0.00     0.174 HD
ATOM     12  H           0     140.474 131.177 147.382  0.00  0.00     0.174 HD
ATOM     13  C           0     136.587 130.866 146.680  0.00  0.00     0.217 C 
ATOM     14  N           0     137.935 131.371 146.982  0.00  0.00    -0.191 N 
ATOM     15  N           0     135.564 131.616 147.408  0.00  0.00    -0.179 N 
ATOM     16  C           0     135.340 132.859 146.656  0.00  0.00     0.106 C 
ATOM     17  C           0     136.202 133.983 147.234  0.00  0.00     0.033 C 
ATOM     18  C           0     135.754 132.576 145.196  0.00  0.00     0.098 C 
ATOM     19  C           0     136.255 131.105 145.193  0.00  0.00     0.210 C 
ATOM     20  H           0     135.096 129.645 149.871  0.00  0.00     0.178 HD
ATOM     21  H           0     138.166 128.486 148.313  0.00  0.00     0.178 HD
ATOM     22  H           0     138.240 132.285 146.866  0.00  0.00     0.180 HD
ENDROOT
BRANCH   6  23
ATOM     23  C           0     134.271 128.648 147.047  0.00  0.00     0.208 C 
BRANCH  23  24
ATOM     24  O           0     133.436 127.649 147.690  0.00  0.00    -0.302 OA
BRANCH  24  25
ATOM     25  C           0     132.130 127.898 147.901  0.00  0.00     0.358 C 
ATOM     26  N           0     131.756 128.981 148.610  0.00  0.00    -0.346 N 
ATOM     27  H           0     132.428 129.580 148.970  0.00  0.00     0.161 HD
ATOM     28  H           0     130.814 129.159 148.762  0.00  0.00     0.161 HD
ATOM     29  O           0     131.288 127.146 147.450  0.00  0.00    -0.239 OA
ENDBRANCH  24  25
ENDBRANCH  23  24
ENDBRANCH   6  23
BRANCH  19  30
ATOM     30  O           0     137.419 130.967 144.376  0.00  0.00    -0.362 OA
ATOM     31  H           0     137.534 131.806 143.911  0.00  0.00     0.213 HD
ENDBRANCH  19  30
BRANCH  19  32
ATOM     32  O           0     135.222 130.217 144.760  0.00  0.00    -0.362 OA
ATOM     33  H           0     134.409 130.497 145.203  0.00  0.00     0.213 HD
ENDBRANCH  19  32
TORSDOF 5
ENDMDL
MODEL 7
REMARK VINA RESULT:      -6.3      8.242     11.911
REMARK  5 active torsions:
REMARK  status: ('A' for Active; 'I' for Inactive)
REMARK    1  A    between atoms: C_6  and  C_7 
REMARK    2  A    between atoms: C_7  and  O_8 
REMARK    3  A    between atoms: O_8  and  C_9 
REMARK       I    between atoms: C_9  and  N_10 
REMARK    4  A    between atoms: C_24  and  O_25 
REMARK    5  A    between atoms: C_24  and  O_26 
ROOT
ATOM      1  N           0     132.946 134.911 130.875  0.00  0.00    -0.235 N 
ATOM      2  H           0     133.746 135.124 130.369  0.00  0.00     0.174 HD
ATOM      3  H           0     132.087 135.266 130.596  0.00  0.00     0.174 HD
ATOM      4  C           0     133.024 134.143 131.925  0.00  0.00     0.672 C 
ATOM      5  N           0     134.224 133.607 132.357  0.00  0.00    -0.218 N 
ATOM      6  C           0     134.385 133.325 133.781  0.00  0.00     0.151 C 
ATOM      7  C           0     133.244 132.499 134.343  0.00  0.00     0.180 C 
ATOM      8  N           0     133.428 131.086 133.947  0.00  0.00    -0.216 N 
ATOM      9  C           0     132.191 130.580 133.628  0.00  0.00     0.670 C 
ATOM     10  N           0     131.909 129.308 133.586  0.00  0.00    -0.235 N 
ATOM     11  H           0     132.594 128.652 133.787  0.00  0.00     0.174 HD
ATOM     12  H           0     131.013 129.018 133.353  0.00  0.00     0.174 HD
ATOM     13  C           0     131.879 132.860 133.781  0.00  0.00     0.217 C 
ATOM     14  N           0     131.289 131.580 133.360  0.00  0.00    -0.191 N 
ATOM     15  N           0     131.920 133.816 132.674  0.00  0.00    -0.179 N 
ATOM     16  C           0     130.572 134.394 132.571  0.00  0.00     0.106 C 
ATOM     17  C           0     129.752 133.627 131.532  0.00  0.00     0.033 C 
ATOM     18  C           0     129.921 134.257 133.963  0.00  0.00     0.098 C 
ATOM     19  C           0     130.981 133.533 134.839  0.00  0.00     0.210 C 
ATOM     20  H           0     134.940 133.424 131.729  0.00  0.00     0.178 HD
ATOM     21  H           0     134.269 130.603 133.918  0.00  0.00     0.178 HD
ATOM     22  H           0     130.412 131.462 132.963  0.00  0.00     0.180 HD
ENDROOT
BRANCH   6  23
ATOM     23  C           0     134.456 134.650 134.542  0.00  0.00     0.208 C 
BRANCH  23  24
ATOM     24  O           0     134.759 134.391 135.938  0.00  0.00    -0.302 OA
BRANCH  24  25
ATOM     25  C           0     135.049 135.413 136.765  0.00  0.00     0.358 C 
ATOM     26  N           0     134.404 135.531 137.943  0.00  0.00    -0.346 N 
ATOM     27  H           0     133.729 134.880 138.193  0.00  0.00     0.161 HD
ATOM     28  H           0     134.613 136.268 138.538  0.00  0.00     0.161 HD
ATOM     29  O           0     135.893 136.229 136.451  0.00  0.00    -0.239 OA
ENDBRANCH  24  25
ENDBRANCH  23  24
ENDBRANCH   6  23
BRANCH  19  30
ATOM     30  O           0     130.362 132.561 135.684  0.00  0.00    -0.362 OA
ATOM     31  H           0     129.688 132.118 135.152  0.00  0.00     0.213 HD
ENDBRANCH  19  30
BRANCH  19  32
ATOM     32  O           0     131.730 134.474 135.610  0.00  0.00    -0.362 OA
ATOM     33  H           0     132.415 134.831 135.027  0.00  0.00     0.213 HD
ENDBRANCH  19  32
TORSDOF 5
ENDMDL
MODEL 8
REMARK VINA RESULT:      -6.3      7.404     11.143
REMARK  5 active torsions:
REMARK  status: ('A' for Active; 'I' for Inactive)
REMARK    1  A    between atoms: C_6  and  C_7 
REMARK    2  A    between atoms: C_7  and  O_8 
REMARK    3  A    between atoms: O_8  and  C_9 
REMARK       I    between atoms: C_9  and  N_10 
REMARK    4  A    between atoms: C_24  and  O_25 
REMARK    5  A    between atoms: C_24  and  O_26 
ROOT
ATOM      1  N           0     130.615 136.513 133.433  0.00  0.00    -0.235 N 
ATOM      2  H           0     130.731 137.474 133.494  0.00  0.00     0.174 HD
ATOM      3  H           0     129.813 136.145 133.031  0.00  0.00     0.174 HD
ATOM      4  C           0     131.542 135.715 133.884  0.00  0.00     0.672 C 
ATOM      5  N           0     132.707 136.191 134.459  0.00  0.00    -0.218 N 
ATOM      6  C           0     133.368 135.369 135.469  0.00  0.00     0.151 C 
ATOM      7  C           0     133.593 133.944 135.003  0.00  0.00     0.180 C 
ATOM      8  N           0     134.752 133.911 134.085  0.00  0.00    -0.216 N 
ATOM      9  C           0     134.451 133.039 133.067  0.00  0.00     0.670 C 
ATOM     10  N           0     135.339 132.488 132.288  0.00  0.00    -0.235 N 
ATOM     11  H           0     136.281 132.687 132.409  0.00  0.00     0.174 HD
ATOM     12  H           0     135.058 131.880 131.587  0.00  0.00     0.174 HD
ATOM     13  C           0     132.455 133.373 134.174  0.00  0.00     0.217 C 
ATOM     14  N           0     133.098 132.820 132.972  0.00  0.00    -0.191 N 
ATOM     15  N           0     131.422 134.348 133.822  0.00  0.00    -0.179 N 
ATOM     16  C           0     130.226 133.576 133.455  0.00  0.00     0.106 C 
ATOM     17  C           0     130.180 133.373 131.939  0.00  0.00     0.033 C 
ATOM     18  C           0     130.341 132.211 134.167  0.00  0.00     0.098 C 
ATOM     19  C           0     131.696 132.261 134.925  0.00  0.00     0.210 C 
ATOM     20  H           0     133.075 137.049 134.197  0.00  0.00     0.178 HD
ATOM     21  H           0     135.576 134.415 134.183  0.00  0.00     0.178 HD
ATOM     22  H           0     132.646 132.374 132.239  0.00  0.00     0.180 HD
ENDROOT
BRANCH   6  23
ATOM     23  C           0     132.502 135.344 136.730  0.00  0.00     0.208 C 
BRANCH  23  24
ATOM     24  O           0     133.166 134.564 137.759  0.00  0.00    -0.302 OA
BRANCH  24  25
ATOM     25  C           0     133.029 134.903 139.055  0.00  0.00     0.358 C 
ATOM     26  N           0     133.527 136.073 139.502  0.00  0.00    -0.346 N 
ATOM     27  H           0     133.986 136.670 138.890  0.00  0.00     0.161 HD
ATOM     28  H           0     133.429 136.317 140.436  0.00  0.00     0.161 HD
ATOM     29  O           0     132.456 134.155 139.821  0.00  0.00    -0.239 OA
ENDBRANCH  24  25
ENDBRANCH  23  24
ENDBRANCH   6  23
BRANCH  19  30
ATOM     30  O           0     132.380 131.011 134.825  0.00  0.00    -0.362 OA
ATOM     31  H           0     132.982 131.082 134.072  0.00  0.00     0.213 HD
ENDBRANCH  19  30
BRANCH  19  32
ATOM     32  O           0     131.498 132.624 136.294  0.00  0.00    -0.362 OA
ATOM     33  H           0     131.662 131.829 136.820  0.00  0.00     0.213 HD
ENDBRANCH  19  32
TORSDOF 5
ENDMDL
MODEL 9
REMARK VINA RESULT:      -6.3      2.666      4.349
REMARK  5 active torsions:
REMARK  status: ('A' for Active; 'I' for Inactive)
REMARK    1  A    between atoms: C_6  and  C_7 
REMARK    2  A    between atoms: C_7  and  O_8 
REMARK    3  A    between atoms: O_8  and  C_9 
REMARK       I    between atoms: C_9  and  N_10 
REMARK    4  A    between atoms: C_24  and  O_25 
REMARK    5  A    between atoms: C_24  and  O_26 
ROOT
ATOM      1  N           0     133.276 133.453 142.694  0.00  0.00    -0.235 N 
ATOM      2  H           0     132.788 133.937 142.009  0.00  0.00     0.174 HD
ATOM      3  H           0     132.924 132.619 143.042  0.00  0.00     0.174 HD
ATOM      4  C           0     134.407 133.920 143.141  0.00  0.00     0.672 C 
ATOM      5  N           0     134.953 135.101 142.671  0.00  0.00    -0.218 N 
ATOM      6  C           0     135.800 135.881 143.570  0.00  0.00     0.151 C 
ATOM      7  C           0     136.896 135.048 144.205  0.00  0.00     0.180 C 
ATOM      8  N           0     137.978 134.838 143.219  0.00  0.00    -0.216 N 
ATOM      9  C           0     138.420 133.544 143.357  0.00  0.00     0.670 C 
ATOM     10  N           0     139.573 133.114 142.927  0.00  0.00    -0.235 N 
ATOM     11  H           0     140.180 133.722 142.476  0.00  0.00     0.174 HD
ATOM     12  H           0     139.824 132.187 143.057  0.00  0.00     0.174 HD
ATOM     13  C           0     136.468 133.639 144.582  0.00  0.00     0.217 C 
ATOM     14  N           0     137.497 132.761 144.005  0.00  0.00    -0.191 N 
ATOM     15  N           0     135.132 133.273 144.112  0.00  0.00    -0.179 N 
ATOM     16  C           0     134.703 132.125 144.924  0.00  0.00     0.106 C 
ATOM     17  C           0     135.030 130.818 144.197  0.00  0.00     0.033 C 
ATOM     18  C           0     135.487 132.200 146.252  0.00  0.00     0.098 C 
ATOM     19  C           0     136.406 133.446 146.111  0.00  0.00     0.210 C 
ATOM     20  H           0     134.778 135.403 141.766  0.00  0.00     0.178 HD
ATOM     21  H           0     138.315 135.494 142.590  0.00  0.00     0.178 HD
ATOM     22  H           0     137.522 131.793 144.072  0.00  0.00     0.180 HD
ENDROOT
BRANCH   6  23
ATOM     23  C           0     134.927 136.474 144.678  0.00  0.00     0.208 C 
BRANCH  23  24
ATOM     24  O           0     134.624 137.860 144.367  0.00  0.00    -0.302 OA
BRANCH  24  25
ATOM     25  C           0     135.621 138.724 144.099  0.00  0.00     0.358 C 
ATOM     26  N           0     135.652 139.374 142.919  0.00  0.00    -0.346 N 
ATOM     27  H           0     134.955 139.218 142.262  0.00  0.00     0.161 HD
ATOM     28  H           0     136.371 139.996 142.727  0.00  0.00     0.161 HD
ATOM     29  O           0     136.494 138.918 144.923  0.00  0.00    -0.239 OA
ENDBRANCH  24  25
ENDBRANCH  23  24
ENDBRANCH   6  23
BRANCH  19  30
ATOM     30  O           0     137.702 133.183 146.651  0.00  0.00    -0.362 OA
ATOM     31  H           0     138.344 133.526 146.015  0.00  0.00     0.213 HD
ENDBRANCH  19  30
BRANCH  19  32
ATOM     32  O           0     135.815 134.586 146.738  0.00  0.00    -0.362 OA
ATOM     33  H           0     136.480 134.951 147.337  0.00  0.00     0.213 HD
ENDBRANCH  19  32
TORSDOF 5
ENDMDL
