# created with PyMOL 2.3.4
@<TRIPOS>MOLECULE
ligand_out_0001
33 35 1                 
SMALL
USER_CHARGES
@<TRIPOS>ATOM
1	   N	138.954	133.229	142.917	N.3	1	UNK0	-0.235	
2	   N	137.154	134.734	143.068	N.3	1	UNK0	-0.218	
3	   N	135.542	135.630	145.542	N.3	1	UNK0	-0.216	
4	   N	136.037	135.884	147.842	N.3	1	UNK0	-0.235	
5	   N	136.563	133.919	146.634	N.3	1	UNK0	-0.191	
6	   N	137.298	132.933	144.547	N.3	1	UNK0	-0.179	
7	   N	132.854	131.796	141.898	N.pl3	1	UNK0	-0.346	
8	   C	137.849	133.614	143.490	C.3	1	UNK0	0.672	
9	   C	135.707	134.767	143.265	C.3	1	UNK0	0.151	
10	   C	135.306	134.443	144.691	C.3	1	UNK0	0.180	
11	   C	136.048	135.187	146.740	C.3	1	UNK0	0.670	
12	   C	136.144	133.356	145.341	C.3	1	UNK0	0.217	
13	   C	137.704	131.618	145.065	C.3	1	UNK0	0.106	
14	   C	138.813	131.785	146.106	C.3	1	UNK0	0.033	
15	   C	136.454	130.994	145.721	C.3	1	UNK0	0.098	
16	   C	135.336	132.062	145.566	C.3	1	UNK0	0.210	
17	   C	135.058	133.748	142.327	C.2	1	UNK0	0.208	
18	   C	132.829	133.114	141.616	C.2	1	UNK0	0.358	
19	   O	133.623	133.963	142.296	O.2	1	UNK0	-0.302	
20	   O	132.089	133.536	140.750	O.co2	1	UNK0	-0.239	
21	   O	134.547	132.147	146.754	O.2	1	UNK0	-0.362	
22	   O	134.517	131.778	144.430	O.2	1	UNK0	-0.362	
23	   H	139.315	133.732	142.170	 H	1	UNK0	0.174	
24	   H	139.419	132.441	143.240	 H	1	UNK0	0.174	
25	   H	135.656	136.776	147.848	 H	1	UNK0	0.174	
26	   H	136.411	135.511	148.655	 H	1	UNK0	0.174	
27	   H	137.617	135.479	142.654	 H	1	UNK0	0.178	
28	   H	135.370	136.553	145.299	 H	1	UNK0	0.178	
29	   H	137.108	133.471	147.300	 H	1	UNK0	0.180	
30	   H	133.446	131.459	142.589	 H	1	UNK0	0.161	
31	   H	132.282	131.185	141.408	 H	1	UNK0	0.161	
32	   H	134.361	133.084	146.899	 H	1	UNK0	0.213	
33	   H	134.343	132.622	143.992	 H	1	UNK0	0.213	
@<TRIPOS>BOND
1 1 8 1
2 1 23 1
3 1 24 1
4 2 9 1
5 2 27 1
6 3 11 1
7 3 28 1
8 4 25 1
9 4 26 1
10 5 29 1
11 6 13 1
12 7 30 1
13 7 31 1
14 2 8 1
15 6 8 1
16 9 10 1
17 9 17 1
18 3 10 1
19 10 12 1
20 4 11 1
21 5 11 1
22 5 12 1
23 6 12 1
24 12 16 1
25 13 14 1
26 13 15 1
27 15 16 1
28 16 21 2
29 16 22 2
30 17 19 2
31 7 18 1
32 18 20 2
33 18 19 2
34 21 32 1
35 22 33 1
@<TRIPOS>SUBSTRUCTURE
1	UNK0	1	GROUP	1 ****	UNK
