# created with PyMOL 2.3.4
@<TRIPOS>MOLECULE
ligand_out_0001
32 34 1                 
SMALL
USER_CHARGES
@<TRIPOS>ATOM
1	   N	130.599	131.734	135.413	N.3	1	UNK0	-0.235	
2	   N	129.345	130.524	133.835	N.3	1	UNK0	-0.218	
3	   N	129.945	127.802	132.511	N.3	1	UNK0	-0.211	
4	   N	131.110	125.854	133.181	N.3	1	UNK0	-0.235	
5	   N	132.038	128.022	133.371	N.3	1	UNK0	-0.191	
6	   N	131.674	130.370	133.839	N.3	1	UNK0	-0.183	
7	   N	128.537	133.770	132.620	N.pl3	1	UNK0	-0.346	
8	   C	130.544	130.908	134.405	C.3	1	UNK0	0.672	
9	   C	129.332	130.163	132.420	C.3	1	UNK0	0.151	
10	   C	130.397	129.140	132.071	C.3	1	UNK0	0.182	
11	   C	128.584	127.272	132.411	C.3	1	UNK0	0.169	
12	   C	131.036	127.147	133.030	C.3	1	UNK0	0.672	
13	   C	131.713	129.339	132.802	C.3	1	UNK0	0.217	
14	   C	133.070	130.752	134.104	C.3	1	UNK0	0.150	
15	   C	133.871	130.419	132.829	C.3	1	UNK0	0.093	
16	   C	132.839	129.793	131.851	C.3	1	UNK0	0.209	
17	   C	129.570	131.424	131.586	C.2	1	UNK0	0.208	
18	   C	127.769	133.034	131.793	C.2	1	UNK0	0.358	
19	   O	128.294	131.968	131.158	O.2	1	UNK0	-0.302	
20	   O	126.604	133.332	131.619	O.co2	1	UNK0	-0.239	
21	   O	133.406	128.682	131.156	O.2	1	UNK0	-0.362	
22	   O	132.353	130.773	130.931	O.2	1	UNK0	-0.362	
23	   H	129.782	132.098	135.786	 H	1	UNK0	0.174	
24	   H	131.457	131.979	135.792	 H	1	UNK0	0.174	
25	   H	130.364	125.292	132.918	 H	1	UNK0	0.174	
26	   H	131.910	125.454	133.554	 H	1	UNK0	0.174	
27	   H	128.530	130.494	134.362	 H	1	UNK0	0.178	
28	   H	132.825	127.807	133.895	 H	1	UNK0	0.180	
29	   H	129.467	133.532	132.759	 H	1	UNK0	0.161	
30	   H	128.160	134.538	133.077	 H	1	UNK0	0.161	
31	   H	133.550	127.986	131.811	 H	1	UNK0	0.213	
32	   H	133.118	131.292	130.646	 H	1	UNK0	0.213	
@<TRIPOS>BOND
1 1 8 1
2 1 23 1
3 1 24 1
4 2 9 1
5 2 27 1
6 3 11 1
7 3 12 1
8 4 25 1
9 4 26 1
10 5 28 1
11 6 14 1
12 7 29 1
13 7 30 1
14 2 8 1
15 6 8 1
16 9 10 1
17 9 17 1
18 3 10 1
19 10 13 1
20 4 12 1
21 5 12 1
22 5 13 1
23 6 13 1
24 13 16 1
25 14 15 1
26 15 16 1
27 16 21 2
28 16 22 2
29 17 19 2
30 7 18 1
31 18 20 2
32 18 19 2
33 21 31 1
34 22 32 1
@<TRIPOS>SUBSTRUCTURE
1	UNK0	1	GROUP	1 ****	UNK
