MODEL 1
REMARK VINA RESULT:      -7.0      0.000      0.000
REMARK  5 active torsions:
REMARK  status: ('A' for Active; 'I' for Inactive)
REMARK    1  A    between atoms: C_6  and  C_7 
REMARK    2  A    between atoms: C_7  and  O_8 
REMARK    3  A    between atoms: O_8  and  C_9 
REMARK       I    between atoms: C_9  and  N_10 
REMARK    4  A    between atoms: C_24  and  O_25 
REMARK    5  A    between atoms: C_24  and  O_26 
ROOT
ATOM      1  N           0     130.599 131.734 135.413  0.00  0.00    -0.235 N 
ATOM      2  H           0     129.782 132.098 135.786  0.00  0.00     0.174 HD
ATOM      3  H           0     131.457 131.979 135.792  0.00  0.00     0.174 HD
ATOM      4  C           0     130.544 130.908 134.405  0.00  0.00     0.672 C 
ATOM      5  N           0     129.345 130.524 133.835  0.00  0.00    -0.218 N 
ATOM      6  C           0     129.332 130.163 132.420  0.00  0.00     0.151 C 
ATOM      7  C           0     130.397 129.140 132.071  0.00  0.00     0.182 C 
ATOM      8  N           0     129.945 127.802 132.511  0.00  0.00    -0.211 N 
ATOM      9  C           0     128.584 127.272 132.411  0.00  0.00     0.169 C 
ATOM     10  C           0     131.036 127.147 133.030  0.00  0.00     0.672 C 
ATOM     11  N           0     131.110 125.854 133.181  0.00  0.00    -0.235 N 
ATOM     12  H           0     130.364 125.292 132.918  0.00  0.00     0.174 HD
ATOM     13  H           0     131.910 125.454 133.554  0.00  0.00     0.174 HD
ATOM     14  C           0     131.713 129.339 132.802  0.00  0.00     0.217 C 
ATOM     15  N           0     132.038 128.022 133.371  0.00  0.00    -0.191 N 
ATOM     16  N           0     131.674 130.370 133.839  0.00  0.00    -0.183 N 
ATOM     17  C           0     133.070 130.752 134.104  0.00  0.00     0.150 C 
ATOM     18  C           0     133.871 130.419 132.829  0.00  0.00     0.093 C 
ATOM     19  C           0     132.839 129.793 131.851  0.00  0.00     0.209 C 
ATOM     20  H           0     128.530 130.494 134.362  0.00  0.00     0.178 HD
ATOM     21  H           0     132.825 127.807 133.895  0.00  0.00     0.180 HD
ENDROOT
BRANCH   6  22
ATOM     22  C           0     129.570 131.424 131.586  0.00  0.00     0.208 C 
BRANCH  22  23
ATOM     23  O           0     128.294 131.968 131.158  0.00  0.00    -0.302 OA
BRANCH  23  24
ATOM     24  C           0     127.769 133.034 131.793  0.00  0.00     0.358 C 
ATOM     25  N           0     128.537 133.770 132.620  0.00  0.00    -0.346 N 
ATOM     26  H           0     129.467 133.532 132.759  0.00  0.00     0.161 HD
ATOM     27  H           0     128.160 134.538 133.077  0.00  0.00     0.161 HD
ATOM     28  O           0     126.604 133.332 131.619  0.00  0.00    -0.239 OA
ENDBRANCH  23  24
ENDBRANCH  22  23
ENDBRANCH   6  22
BRANCH  19  29
ATOM     29  O           0     133.406 128.682 131.156  0.00  0.00    -0.362 OA
ATOM     30  H           0     133.550 127.986 131.811  0.00  0.00     0.213 HD
ENDBRANCH  19  29
BRANCH  19  31
ATOM     31  O           0     132.353 130.773 130.931  0.00  0.00    -0.362 OA
ATOM     32  H           0     133.118 131.292 130.646  0.00  0.00     0.213 HD
ENDBRANCH  19  31
TORSDOF 5
ENDMDL
MODEL 2
REMARK VINA RESULT:      -6.7      4.445      6.603
REMARK  5 active torsions:
REMARK  status: ('A' for Active; 'I' for Inactive)
REMARK    1  A    between atoms: C_6  and  C_7 
REMARK    2  A    between atoms: C_7  and  O_8 
REMARK    3  A    between atoms: O_8  and  C_9 
REMARK       I    between atoms: C_9  and  N_10 
REMARK    4  A    between atoms: C_24  and  O_25 
REMARK    5  A    between atoms: C_24  and  O_26 
ROOT
ATOM      1  N           0     134.116 132.372 132.942  0.00  0.00    -0.235 N 
ATOM      2  H           0     134.020 131.553 132.432  0.00  0.00     0.174 HD
ATOM      3  H           0     134.999 132.741 133.104  0.00  0.00     0.174 HD
ATOM      4  C           0     133.061 132.982 133.405  0.00  0.00     0.672 C 
ATOM      5  N           0     131.782 132.498 133.195  0.00  0.00    -0.218 N 
ATOM      6  C           0     130.756 132.793 134.191  0.00  0.00     0.151 C 
ATOM      7  C           0     130.678 134.271 134.525  0.00  0.00     0.182 C 
ATOM      8  N           0     129.959 134.975 133.440  0.00  0.00    -0.211 N 
ATOM      9  C           0     128.781 134.485 132.722  0.00  0.00     0.169 C 
ATOM     10  C           0     130.599 136.173 133.230  0.00  0.00     0.672 C 
ATOM     11  N           0     130.060 137.195 132.625  0.00  0.00    -0.235 N 
ATOM     12  H           0     129.151 137.136 132.292  0.00  0.00     0.174 HD
ATOM     13  H           0     130.567 138.013 132.509  0.00  0.00     0.174 HD
ATOM     14  C           0     132.026 134.968 134.581  0.00  0.00     0.217 C 
ATOM     15  N           0     131.875 136.162 133.736  0.00  0.00    -0.191 N 
ATOM     16  N           0     133.148 134.141 134.137  0.00  0.00    -0.183 N 
ATOM     17  C           0     134.367 134.761 134.678  0.00  0.00     0.150 C 
ATOM     18  C           0     133.940 135.566 135.922  0.00  0.00     0.093 C 
ATOM     19  C           0     132.401 135.383 136.019  0.00  0.00     0.209 C 
ATOM     20  H           0     131.572 131.975 132.404  0.00  0.00     0.178 HD
ATOM     21  H           0     132.559 136.829 133.567  0.00  0.00     0.180 HD
ENDROOT
BRANCH   6  22
ATOM     22  C           0     131.070 132.015 135.470  0.00  0.00     0.208 C 
BRANCH  22  23
ATOM     23  O           0     130.186 132.457 136.534  0.00  0.00    -0.302 OA
BRANCH  23  24
ATOM     24  C           0     130.277 131.904 137.758  0.00  0.00     0.358 C 
ATOM     25  N           0     130.860 132.586 138.764  0.00  0.00    -0.346 N 
ATOM     26  H           0     131.214 133.475 138.606  0.00  0.00     0.161 HD
ATOM     27  H           0     130.925 132.188 139.646  0.00  0.00     0.161 HD
ATOM     28  O           0     129.833 130.790 137.956  0.00  0.00    -0.239 OA
ENDBRANCH  23  24
ENDBRANCH  22  23
ENDBRANCH   6  22
BRANCH  19  29
ATOM     29  O           0     131.765 136.609 136.383  0.00  0.00    -0.362 OA
ATOM     30  H           0     132.425 137.308 136.279  0.00  0.00     0.213 HD
ENDBRANCH  19  29
BRANCH  19  31
ATOM     31  O           0     132.070 134.345 136.943  0.00  0.00    -0.362 OA
ATOM     32  H           0     132.817 133.729 136.950  0.00  0.00     0.213 HD
ENDBRANCH  19  31
TORSDOF 5
ENDMDL
MODEL 3
REMARK VINA RESULT:      -6.7     13.306     15.561
REMARK  5 active torsions:
REMARK  status: ('A' for Active; 'I' for Inactive)
REMARK    1  A    between atoms: C_6  and  C_7 
REMARK    2  A    between atoms: C_7  and  O_8 
REMARK    3  A    between atoms: O_8  and  C_9 
REMARK       I    between atoms: C_9  and  N_10 
REMARK    4  A    between atoms: C_24  and  O_25 
REMARK    5  A    between atoms: C_24  and  O_26 
ROOT
ATOM      1  N           0     135.871 134.760 147.800  0.00  0.00    -0.235 N 
ATOM      2  H           0     136.273 135.638 147.716  0.00  0.00     0.174 HD
ATOM      3  H           0     135.259 134.575 148.529  0.00  0.00     0.174 HD
ATOM      4  C           0     136.148 133.829 146.930  0.00  0.00     0.672 C 
ATOM      5  N           0     137.010 134.047 145.871  0.00  0.00    -0.218 N 
ATOM      6  C           0     137.762 132.912 145.342  0.00  0.00     0.151 C 
ATOM      7  C           0     136.873 131.725 145.022  0.00  0.00     0.182 C 
ATOM      8  N           0     136.173 131.975 143.743  0.00  0.00    -0.211 N 
ATOM      9  C           0     136.746 132.602 142.551  0.00  0.00     0.169 C 
ATOM     10  C           0     134.887 131.512 143.878  0.00  0.00     0.672 C 
ATOM     11  N           0     134.099 131.234 142.876  0.00  0.00    -0.235 N 
ATOM     12  H           0     134.414 131.352 141.966  0.00  0.00     0.174 HD
ATOM     13  H           0     133.201 130.910 143.041  0.00  0.00     0.174 HD
ATOM     14  C           0     135.747 131.505 146.017  0.00  0.00     0.217 C 
ATOM     15  N           0     134.532 131.376 145.198  0.00  0.00    -0.191 N 
ATOM     16  N           0     135.608 132.569 147.010  0.00  0.00    -0.183 N 
ATOM     17  C           0     134.833 132.004 148.126  0.00  0.00     0.150 C 
ATOM     18  C           0     135.045 130.476 148.083  0.00  0.00     0.093 C 
ATOM     19  C           0     135.957 130.225 146.852  0.00  0.00     0.209 C 
ATOM     20  H           0     137.113 134.933 145.487  0.00  0.00     0.178 HD
ATOM     21  H           0     133.635 131.220 145.532  0.00  0.00     0.180 HD
ENDROOT
BRANCH   6  22
ATOM     22  C           0     138.802 132.483 146.378  0.00  0.00     0.208 C 
BRANCH  22  23
ATOM     23  O           0     139.448 131.260 145.936  0.00  0.00    -0.302 OA
BRANCH  23  24
ATOM     24  C           0     140.396 130.685 146.701  0.00  0.00     0.358 C 
ATOM     25  N           0     140.538 129.345 146.704  0.00  0.00    -0.346 N 
ATOM     26  H           0     139.957 128.794 146.157  0.00  0.00     0.161 HD
ATOM     27  H           0     141.222 128.931 147.255  0.00  0.00     0.161 HD
ATOM     28  O           0     141.125 131.375 147.387  0.00  0.00    -0.239 OA
ENDBRANCH  23  24
ENDBRANCH  22  23
ENDBRANCH   6  22
BRANCH  19  29
ATOM     29  O           0     135.534 129.066 146.134  0.00  0.00    -0.362 OA
ATOM     30  H           0     136.101 128.337 146.419  0.00  0.00     0.213 HD
ENDBRANCH  19  29
BRANCH  19  31
ATOM     31  O           0     137.324 130.105 147.250  0.00  0.00    -0.362 OA
ATOM     32  H           0     137.386 129.314 147.803  0.00  0.00     0.213 HD
ENDBRANCH  19  31
TORSDOF 5
ENDMDL
MODEL 4
REMARK VINA RESULT:      -6.6     14.475     16.057
REMARK  5 active torsions:
REMARK  status: ('A' for Active; 'I' for Inactive)
REMARK    1  A    between atoms: C_6  and  C_7 
REMARK    2  A    between atoms: C_7  and  O_8 
REMARK    3  A    between atoms: O_8  and  C_9 
REMARK       I    between atoms: C_9  and  N_10 
REMARK    4  A    between atoms: C_24  and  O_25 
REMARK    5  A    between atoms: C_24  and  O_26 
ROOT
ATOM      1  N           0     134.125 131.873 149.458  0.00  0.00    -0.235 N 
ATOM      2  H           0     133.630 131.531 150.218  0.00  0.00     0.174 HD
ATOM      3  H           0     134.014 132.797 149.183  0.00  0.00     0.174 HD
ATOM      4  C           0     134.946 131.095 148.811  0.00  0.00     0.672 C 
ATOM      5  N           0     135.143 129.774 149.169  0.00  0.00    -0.218 N 
ATOM      6  C           0     135.518 128.820 148.129  0.00  0.00     0.151 C 
ATOM      7  C           0     136.703 129.292 147.307  0.00  0.00     0.182 C 
ATOM      8  N           0     137.945 129.078 148.081  0.00  0.00    -0.211 N 
ATOM      9  C           0     138.253 127.917 148.920  0.00  0.00     0.169 C 
ATOM     10  C           0     138.758 130.165 147.869  0.00  0.00     0.672 C 
ATOM     11  N           0     140.044 130.171 148.085  0.00  0.00    -0.235 N 
ATOM     12  H           0     140.483 129.372 148.415  0.00  0.00     0.174 HD
ATOM     13  H           0     140.561 130.974 147.915  0.00  0.00     0.174 HD
ATOM     14  C           0     136.706 130.784 147.020  0.00  0.00     0.217 C 
ATOM     15  N           0     138.049 131.245 147.403  0.00  0.00    -0.191 N 
ATOM     16  N           0     135.666 131.532 147.725  0.00  0.00    -0.183 N 
ATOM     17  C           0     135.508 132.808 147.009  0.00  0.00     0.150 C 
ATOM     18  C           0     135.984 132.565 145.562  0.00  0.00     0.093 C 
ATOM     19  C           0     136.451 131.085 145.529  0.00  0.00     0.209 C 
ATOM     20  H           0     135.035 129.487 150.090  0.00  0.00     0.178 HD
ATOM     21  H           0     138.379 132.154 147.335  0.00  0.00     0.180 HD
ENDROOT
BRANCH   6  22
ATOM     22  C           0     134.324 128.612 147.195  0.00  0.00     0.208 C 
BRANCH  22  23
ATOM     23  O           0     133.166 128.210 147.974  0.00  0.00    -0.302 OA
BRANCH  23  24
ATOM     24  C           0     132.265 127.358 147.449  0.00  0.00     0.358 C 
ATOM     25  N           0     132.658 126.144 147.017  0.00  0.00    -0.346 N 
ATOM     26  H           0     133.590 125.883 147.084  0.00  0.00     0.161 HD
ATOM     27  H           0     132.009 125.530 146.639  0.00  0.00     0.161 HD
ATOM     28  O           0     131.097 127.684 147.366  0.00  0.00    -0.239 OA
ENDBRANCH  23  24
ENDBRANCH  22  23
ENDBRANCH   6  22
BRANCH  19  29
ATOM     29  O           0     137.649 130.947 144.763  0.00  0.00    -0.362 OA
ATOM     30  H           0     137.566 130.126 144.259  0.00  0.00     0.213 HD
ENDBRANCH  19  29
BRANCH  19  31
ATOM     31  O           0     135.420 130.239 145.016  0.00  0.00    -0.362 OA
ATOM     32  H           0     135.763 129.842 144.203  0.00  0.00     0.213 HD
ENDBRANCH  19  31
TORSDOF 5
ENDMDL
MODEL 5
REMARK VINA RESULT:      -6.6      4.790      6.815
REMARK  5 active torsions:
REMARK  status: ('A' for Active; 'I' for Inactive)
REMARK    1  A    between atoms: C_6  and  C_7 
REMARK    2  A    between atoms: C_7  and  O_8 
REMARK    3  A    between atoms: O_8  and  C_9 
REMARK       I    between atoms: C_9  and  N_10 
REMARK    4  A    between atoms: C_24  and  O_25 
REMARK    5  A    between atoms: C_24  and  O_26 
ROOT
ATOM      1  N           0     130.333 132.402 136.151  0.00  0.00    -0.235 N 
ATOM      2  H           0     129.701 132.738 136.805  0.00  0.00     0.174 HD
ATOM      3  H           0     130.354 131.456 135.938  0.00  0.00     0.174 HD
ATOM      4  C           0     131.149 133.224 135.551  0.00  0.00     0.672 C 
ATOM      5  N           0     131.151 134.581 135.816  0.00  0.00    -0.218 N 
ATOM      6  C           0     132.401 135.318 135.651  0.00  0.00     0.151 C 
ATOM      7  C           0     133.045 135.076 134.299  0.00  0.00     0.182 C 
ATOM      8  N           0     132.333 135.871 133.275  0.00  0.00    -0.211 N 
ATOM      9  C           0     131.828 137.236 133.435  0.00  0.00     0.169 C 
ATOM     10  C           0     132.232 135.095 132.145  0.00  0.00     0.672 C 
ATOM     11  N           0     131.999 135.566 130.952  0.00  0.00    -0.235 N 
ATOM     12  H           0     131.885 136.521 130.821  0.00  0.00     0.174 HD
ATOM     13  H           0     131.939 134.963 130.195  0.00  0.00     0.174 HD
ATOM     14  C           0     132.924 133.647 133.800  0.00  0.00     0.217 C 
ATOM     15  N           0     132.407 133.763 132.428  0.00  0.00    -0.191 N 
ATOM     16  N           0     132.065 132.795 134.621  0.00  0.00    -0.183 N 
ATOM     17  C           0     132.418 131.404 134.297  0.00  0.00     0.150 C 
ATOM     18  C           0     133.868 131.427 133.772  0.00  0.00     0.093 C 
ATOM     19  C           0     134.286 132.923 133.790  0.00  0.00     0.209 C 
ATOM     20  H           0     130.342 135.033 136.104  0.00  0.00     0.178 HD
ATOM     21  H           0     132.224 133.026 131.825  0.00  0.00     0.180 HD
ENDROOT
BRANCH   6  22
ATOM     22  C           0     133.378 134.886 136.746  0.00  0.00     0.208 C 
BRANCH  22  23
ATOM     23  O           0     132.666 134.751 138.004  0.00  0.00    -0.302 OA
BRANCH  23  24
ATOM     24  C           0     133.316 134.935 139.169  0.00  0.00     0.358 C 
ATOM     25  N           0     133.507 136.182 139.644  0.00  0.00    -0.346 N 
ATOM     26  H           0     133.176 136.946 139.147  0.00  0.00     0.161 HD
ATOM     27  H           0     133.975 136.314 140.483  0.00  0.00     0.161 HD
ATOM     28  O           0     133.730 133.977 139.792  0.00  0.00    -0.239 OA
ENDBRANCH  23  24
ENDBRANCH  22  23
ENDBRANCH   6  22
BRANCH  19  29
ATOM     29  O           0     135.038 133.255 132.622  0.00  0.00    -0.362 OA
ATOM     30  H           0     135.260 132.421 132.186  0.00  0.00     0.213 HD
ENDBRANCH  19  29
BRANCH  19  31
ATOM     31  O           0     135.025 133.228 134.975  0.00  0.00    -0.362 OA
ATOM     32  H           0     134.503 133.875 135.470  0.00  0.00     0.213 HD
ENDBRANCH  19  31
TORSDOF 5
ENDMDL
MODEL 6
REMARK VINA RESULT:      -6.5      4.209      6.778
REMARK  5 active torsions:
REMARK  status: ('A' for Active; 'I' for Inactive)
REMARK    1  A    between atoms: C_6  and  C_7 
REMARK    2  A    between atoms: C_7  and  O_8 
REMARK    3  A    between atoms: O_8  and  C_9 
REMARK       I    between atoms: C_9  and  N_10 
REMARK    4  A    between atoms: C_24  and  O_25 
REMARK    5  A    between atoms: C_24  and  O_26 
ROOT
ATOM      1  N           0     134.707 132.954 132.841  0.00  0.00    -0.235 N 
ATOM      2  H           0     134.732 132.271 132.153  0.00  0.00     0.174 HD
ATOM      3  H           0     135.528 133.230 133.280  0.00  0.00     0.174 HD
ATOM      4  C           0     133.574 133.505 133.173  0.00  0.00     0.672 C 
ATOM      5  N           0     132.380 133.150 132.572  0.00  0.00    -0.218 N 
ATOM      6  C           0     131.148 133.278 133.346  0.00  0.00     0.151 C 
ATOM      7  C           0     130.996 134.650 133.975  0.00  0.00     0.182 C 
ATOM      8  N           0     130.556 135.611 132.940  0.00  0.00    -0.211 N 
ATOM      9  C           0     129.580 135.354 131.879  0.00  0.00     0.169 C 
ATOM     10  C           0     131.230 136.789 133.155  0.00  0.00     0.672 C 
ATOM     11  N           0     130.851 137.945 132.687  0.00  0.00    -0.235 N 
ATOM     12  H           0     130.047 138.010 132.148  0.00  0.00     0.174 HD
ATOM     13  H           0     131.373 138.740 132.876  0.00  0.00     0.174 HD
ATOM     14  C           0     132.295 135.243 134.494  0.00  0.00     0.217 C 
ATOM     15  N           0     132.351 136.599 133.925  0.00  0.00    -0.191 N 
ATOM     16  N           0     133.488 134.472 134.146  0.00  0.00    -0.183 N 
ATOM     17  C           0     134.546 134.893 135.076  0.00  0.00     0.150 C 
ATOM     18  C           0     133.839 135.431 136.337  0.00  0.00     0.093 C 
ATOM     19  C           0     132.320 135.316 136.034  0.00  0.00     0.209 C 
ATOM     20  H           0     132.361 132.823 131.658  0.00  0.00     0.178 HD
ATOM     21  H           0     133.056 137.247 134.071  0.00  0.00     0.180 HD
ENDROOT
BRANCH   6  22
ATOM     22  C           0     131.150 132.225 134.456  0.00  0.00     0.208 C 
BRANCH  22  23
ATOM     23  O           0     131.161 130.899 133.865  0.00  0.00    -0.302 OA
BRANCH  23  24
ATOM     24  C           0     132.254 130.120 133.980  0.00  0.00     0.358 C 
ATOM     25  N           0     132.243 128.868 133.484  0.00  0.00    -0.346 N 
ATOM     26  H           0     131.449 128.526 133.044  0.00  0.00     0.161 HD
ATOM     27  H           0     133.030 128.307 133.566  0.00  0.00     0.161 HD
ATOM     28  O           0     133.249 130.547 134.531  0.00  0.00    -0.239 OA
ENDBRANCH  23  24
ENDBRANCH  22  23
ENDBRANCH   6  22
BRANCH  19  29
ATOM     29  O           0     131.619 136.467 136.507  0.00  0.00    -0.362 OA
ATOM     30  H           0     132.252 137.198 136.511  0.00  0.00     0.213 HD
ENDBRANCH  19  29
BRANCH  19  31
ATOM     31  O           0     131.779 134.122 136.602  0.00  0.00    -0.362 OA
ATOM     32  H           0     131.560 133.536 135.863  0.00  0.00     0.213 HD
ENDBRANCH  19  31
TORSDOF 5
ENDMDL
MODEL 7
REMARK VINA RESULT:      -6.4     13.184     15.031
REMARK  5 active torsions:
REMARK  status: ('A' for Active; 'I' for Inactive)
REMARK    1  A    between atoms: C_6  and  C_7 
REMARK    2  A    between atoms: C_7  and  O_8 
REMARK    3  A    between atoms: O_8  and  C_9 
REMARK       I    between atoms: C_9  and  N_10 
REMARK    4  A    between atoms: C_24  and  O_25 
REMARK    5  A    between atoms: C_24  and  O_26 
ROOT
ATOM      1  N           0     135.481 130.818 143.225  0.00  0.00    -0.235 N 
ATOM      2  H           0     135.577 131.129 142.312  0.00  0.00     0.174 HD
ATOM      3  H           0     134.789 130.176 143.449  0.00  0.00     0.174 HD
ATOM      4  C           0     136.285 131.258 144.152  0.00  0.00     0.672 C 
ATOM      5  N           0     137.290 132.169 143.881  0.00  0.00    -0.218 N 
ATOM      6  C           0     137.711 133.076 144.945  0.00  0.00     0.151 C 
ATOM      7  C           0     138.038 132.347 146.235  0.00  0.00     0.182 C 
ATOM      8  N           0     139.373 131.722 146.113  0.00  0.00    -0.211 N 
ATOM      9  C           0     140.550 132.313 145.472  0.00  0.00     0.169 C 
ATOM     10  C           0     139.308 130.487 146.710  0.00  0.00     0.672 C 
ATOM     11  N           0     140.349 129.812 147.111  0.00  0.00    -0.235 N 
ATOM     12  H           0     141.239 130.179 146.994  0.00  0.00     0.174 HD
ATOM     13  H           0     140.233 128.943 147.527  0.00  0.00     0.174 HD
ATOM     14  C           0     137.115 131.180 146.540  0.00  0.00     0.217 C 
ATOM     15  N           0     138.012 130.051 146.834  0.00  0.00    -0.191 N 
ATOM     16  N           0     136.185 130.852 145.460  0.00  0.00    -0.183 N 
ATOM     17  C           0     135.102 130.061 146.065  0.00  0.00     0.150 C 
ATOM     18  C           0     135.058 130.439 147.560  0.00  0.00     0.093 C 
ATOM     19  C           0     136.209 131.463 147.755  0.00  0.00     0.209 C 
ATOM     20  H           0     137.706 132.204 143.004  0.00  0.00     0.178 HD
ATOM     21  H           0     137.735 129.154 147.075  0.00  0.00     0.180 HD
ENDROOT
BRANCH   6  22
ATOM     22  C           0     136.585 134.076 145.216  0.00  0.00     0.208 C 
BRANCH  22  23
ATOM     23  O           0     136.438 134.959 144.074  0.00  0.00    -0.302 OA
BRANCH  23  24
ATOM     24  C           0     135.269 135.007 143.406  0.00  0.00     0.358 C 
ATOM     25  N           0     134.792 136.188 142.966  0.00  0.00    -0.346 N 
ATOM     26  H           0     135.291 137.004 143.130  0.00  0.00     0.161 HD
ATOM     27  H           0     133.951 136.223 142.484  0.00  0.00     0.161 HD
ATOM     28  O           0     134.645 133.985 143.200  0.00  0.00    -0.239 OA
ENDBRANCH  23  24
ENDBRANCH  22  23
ENDBRANCH   6  22
BRANCH  19  29
ATOM     29  O           0     136.901 131.222 148.982  0.00  0.00    -0.362 OA
ATOM     30  H           0     137.512 131.961 149.108  0.00  0.00     0.213 HD
ENDBRANCH  19  29
BRANCH  19  31
ATOM     31  O           0     135.711 132.801 147.708  0.00  0.00    -0.362 OA
ATOM     32  H           0     136.332 133.312 147.170  0.00  0.00     0.213 HD
ENDBRANCH  19  31
TORSDOF 5
ENDMDL
MODEL 8
REMARK VINA RESULT:      -6.4     13.522     15.389
REMARK  5 active torsions:
REMARK  status: ('A' for Active; 'I' for Inactive)
REMARK    1  A    between atoms: C_6  and  C_7 
REMARK    2  A    between atoms: C_7  and  O_8 
REMARK    3  A    between atoms: O_8  and  C_9 
REMARK       I    between atoms: C_9  and  N_10 
REMARK    4  A    between atoms: C_24  and  O_25 
REMARK    5  A    between atoms: C_24  and  O_26 
ROOT
ATOM      1  N           0     136.303 134.801 148.000  0.00  0.00    -0.235 N 
ATOM      2  H           0     135.988 135.602 147.553  0.00  0.00     0.174 HD
ATOM      3  H           0     136.513 134.826 148.947  0.00  0.00     0.174 HD
ATOM      4  C           0     136.439 133.691 147.331  0.00  0.00     0.672 C 
ATOM      5  N           0     136.147 133.605 145.982  0.00  0.00    -0.218 N 
ATOM      6  C           0     136.872 132.628 145.175  0.00  0.00     0.151 C 
ATOM      7  C           0     136.839 131.236 145.778  0.00  0.00     0.182 C 
ATOM      8  N           0     135.521 130.622 145.506  0.00  0.00    -0.211 N 
ATOM      9  C           0     134.759 130.727 144.260  0.00  0.00     0.169 C 
ATOM     10  C           0     135.144 129.934 146.634  0.00  0.00     0.672 C 
ATOM     11  N           0     134.241 128.993 146.649  0.00  0.00    -0.235 N 
ATOM     12  H           0     133.791 128.740 145.829  0.00  0.00     0.174 HD
ATOM     13  H           0     134.021 128.546 147.482  0.00  0.00     0.174 HD
ATOM     14  C           0     136.945 131.213 147.294  0.00  0.00     0.217 C 
ATOM     15  N           0     135.834 130.360 147.742  0.00  0.00    -0.191 N 
ATOM     16  N           0     136.888 132.533 147.920  0.00  0.00    -0.183 N 
ATOM     17  C           0     137.456 132.384 149.268  0.00  0.00     0.150 C 
ATOM     18  C           0     138.397 131.163 149.220  0.00  0.00     0.093 C 
ATOM     19  C           0     138.288 130.621 147.768  0.00  0.00     0.209 C 
ATOM     20  H           0     135.476 134.181 145.581  0.00  0.00     0.178 HD
ATOM     21  H           0     135.625 130.135 148.661  0.00  0.00     0.180 HD
ENDROOT
BRANCH   6  22
ATOM     22  C           0     138.330 133.075 145.050  0.00  0.00     0.208 C 
BRANCH  22  23
ATOM     23  O           0     138.698 133.138 143.647  0.00  0.00    -0.302 OA
BRANCH  23  24
ATOM     24  C           0     138.206 134.119 142.866  0.00  0.00     0.358 C 
ATOM     25  N           0     137.192 133.860 142.017  0.00  0.00    -0.346 N 
ATOM     26  H           0     136.816 132.967 141.968  0.00  0.00     0.161 HD
ATOM     27  H           0     136.838 134.567 141.455  0.00  0.00     0.161 HD
ATOM     28  O           0     138.676 135.238 142.928  0.00  0.00    -0.239 OA
ENDBRANCH  23  24
ENDBRANCH  22  23
ENDBRANCH   6  22
BRANCH  19  29
ATOM     29  O           0     138.253 129.193 147.760  0.00  0.00    -0.362 OA
ATOM     30  H           0     138.307 128.906 148.682  0.00  0.00     0.213 HD
ENDBRANCH  19  29
BRANCH  19  31
ATOM     31  O           0     139.363 131.108 146.963  0.00  0.00    -0.362 OA
ATOM     32  H           0     138.994 131.795 146.391  0.00  0.00     0.213 HD
ENDBRANCH  19  31
TORSDOF 5
ENDMDL
MODEL 9
REMARK VINA RESULT:      -6.4      3.485      5.329
REMARK  5 active torsions:
REMARK  status: ('A' for Active; 'I' for Inactive)
REMARK    1  A    between atoms: C_6  and  C_7 
REMARK    2  A    between atoms: C_7  and  O_8 
REMARK    3  A    between atoms: O_8  and  C_9 
REMARK       I    between atoms: C_9  and  N_10 
REMARK    4  A    between atoms: C_24  and  O_25 
REMARK    5  A    between atoms: C_24  and  O_26 
ROOT
ATOM      1  N           0     129.741 131.148 131.531  0.00  0.00    -0.235 N 
ATOM      2  H           0     128.863 131.548 131.429  0.00  0.00     0.174 HD
ATOM      3  H           0     129.955 130.324 131.065  0.00  0.00     0.174 HD
ATOM      4  C           0     130.635 131.720 132.287  0.00  0.00     0.672 C 
ATOM      5  N           0     130.379 132.898 132.966  0.00  0.00    -0.218 N 
ATOM      6  C           0     131.088 133.146 134.218  0.00  0.00     0.151 C 
ATOM      7  C           0     132.589 132.970 134.081  0.00  0.00     0.182 C 
ATOM      8  N           0     133.157 134.162 133.414  0.00  0.00    -0.211 N 
ATOM      9  C           0     132.760 135.553 133.642  0.00  0.00     0.169 C 
ATOM     10  C           0     134.126 133.727 132.542  0.00  0.00     0.672 C 
ATOM     11  N           0     135.070 134.485 132.058  0.00  0.00    -0.235 N 
ATOM     12  H           0     135.117 135.420 132.312  0.00  0.00     0.174 HD
ATOM     13  H           0     135.724 134.114 131.446  0.00  0.00     0.174 HD
ATOM     14  C           0     133.000 131.818 133.180  0.00  0.00     0.217 C 
ATOM     15  N           0     133.978 132.395 132.244  0.00  0.00    -0.191 N 
ATOM     16  N           0     131.889 131.189 132.466  0.00  0.00    -0.183 N 
ATOM     17  C           0     132.363 129.864 132.038  0.00  0.00     0.150 C 
ATOM     18  C           0     133.496 129.464 133.005  0.00  0.00     0.093 C 
ATOM     19  C           0     133.647 130.667 133.976  0.00  0.00     0.209 C 
ATOM     20  H           0     129.743 133.543 132.618  0.00  0.00     0.178 HD
ATOM     21  H           0     134.440 131.916 131.539  0.00  0.00     0.180 HD
ENDROOT
BRANCH   6  22
ATOM     22  C           0     130.574 132.172 135.279  0.00  0.00     0.208 C 
BRANCH  22  23
ATOM     23  O           0     131.102 132.550 136.578  0.00  0.00    -0.302 OA
BRANCH  23  24
ATOM     24  C           0     130.472 132.155 137.701  0.00  0.00     0.358 C 
ATOM     25  N           0     130.860 132.641 138.897  0.00  0.00    -0.346 N 
ATOM     26  H           0     131.593 133.275 138.949  0.00  0.00     0.161 HD
ATOM     27  H           0     130.406 132.358 139.706  0.00  0.00     0.161 HD
ATOM     28  O           0     129.554 131.362 137.637  0.00  0.00    -0.239 OA
ENDBRANCH  23  24
ENDBRANCH  22  23
ENDBRANCH   6  22
BRANCH  19  29
ATOM     29  O           0     135.025 130.935 134.242  0.00  0.00    -0.362 OA
ATOM     30  H           0     135.506 130.112 134.081  0.00  0.00     0.213 HD
ENDBRANCH  19  29
BRANCH  19  31
ATOM     31  O           0     132.931 130.432 135.190  0.00  0.00    -0.362 OA
ATOM     32  H           0     133.176 131.142 135.800  0.00  0.00     0.213 HD
ENDBRANCH  19  31
TORSDOF 5
ENDMDL
