# created with PyMOL 2.3.4
@<TRIPOS>MOLECULE
ligand_out_0001
32 34 1                 
SMALL
USER_CHARGES
@<TRIPOS>ATOM
1	   N	135.045	136.768	143.171	N.3	1	UNK0	-0.235	
2	   N	133.782	134.790	143.013	N.3	1	UNK0	-0.218	
3	   N	134.062	132.172	144.612	N.3	1	UNK0	-0.215	
4	   N	134.813	131.622	146.787	N.3	1	UNK0	-0.235	
5	   N	136.066	132.981	145.313	N.3	1	UNK0	-0.187	
6	   N	136.036	134.692	143.603	N.3	1	UNK0	-0.183	
7	   N	133.539	136.066	139.868	N.pl3	1	UNK0	-0.346	
8	   C	134.961	135.471	143.262	C.3	1	UNK0	0.672	
9	   C	133.865	133.417	142.522	C.3	1	UNK0	0.151	
10	   C	134.772	132.547	143.371	C.3	1	UNK0	0.180	
11	   C	134.971	132.222	145.641	C.3	1	UNK0	0.672	
12	   C	136.024	133.252	143.866	C.3	1	UNK0	0.219	
13	   C	137.101	133.440	146.242	C.3	1	UNK0	0.171	
14	   C	137.447	135.100	143.726	C.3	1	UNK0	0.150	
15	   C	138.240	133.929	143.099	C.3	1	UNK0	0.093	
16	   C	137.296	132.705	143.195	C.3	1	UNK0	0.210	
17	   C	134.402	133.437	141.090	C.2	1	UNK0	0.208	
18	   C	133.436	134.824	139.353	C.2	1	UNK0	0.358	
19	   O	133.324	133.763	140.173	O.2	1	UNK0	-0.302	
20	   O	133.443	134.664	138.148	O.co2	1	UNK0	-0.239	
21	   O	137.888	131.681	143.998	O.2	1	UNK0	-0.362	
22	   O	136.993	132.205	141.892	O.2	1	UNK0	-0.362	
23	   H	134.265	137.289	142.923	 H	1	UNK0	0.174	
24	   H	135.887	137.214	143.356	 H	1	UNK0	0.174	
25	   H	134.013	131.099	146.955	 H	1	UNK0	0.174	
26	   H	135.495	131.698	147.473	 H	1	UNK0	0.174	
27	   H	132.922	135.214	143.163	 H	1	UNK0	0.178	
28	   H	133.125	131.933	144.686	 H	1	UNK0	0.178	
29	   H	133.533	136.194	140.829	 H	1	UNK0	0.161	
30	   H	133.619	136.831	139.277	 H	1	UNK0	0.161	
31	   H	138.034	130.921	143.418	 H	1	UNK0	0.213	
32	   H	137.393	131.325	141.830	 H	1	UNK0	0.213	
@<TRIPOS>BOND
1 1 8 1
2 1 23 1
3 1 24 1
4 2 9 1
5 2 27 1
6 3 11 1
7 3 28 1
8 4 25 1
9 4 26 1
10 5 13 1
11 6 14 1
12 7 29 1
13 7 30 1
14 2 8 1
15 6 8 1
16 9 10 1
17 9 17 1
18 3 10 1
19 10 12 1
20 4 11 1
21 5 11 1
22 5 12 1
23 6 12 1
24 12 16 1
25 14 15 1
26 15 16 1
27 16 21 2
28 16 22 2
29 17 19 2
30 7 18 1
31 18 20 2
32 18 19 2
33 21 31 1
34 22 32 1
@<TRIPOS>SUBSTRUCTURE
1	UNK0	1	GROUP	1 ****	UNK
