MODEL 1
REMARK VINA RESULT:      -8.1      0.000      0.000
REMARK  5 active torsions:
REMARK  status: ('A' for Active; 'I' for Inactive)
REMARK    1  A    between atoms: C_6  and  C_7 
REMARK    2  A    between atoms: C_7  and  O_8 
REMARK    3  A    between atoms: O_8  and  C_9 
REMARK       I    between atoms: C_9  and  N_10 
REMARK    4  A    between atoms: C_24  and  O_25 
REMARK    5  A    between atoms: C_24  and  O_26 
ROOT
ATOM      1  N           0     135.045 136.768 143.171  0.00  0.00    -0.235 N 
ATOM      2  H           0     134.265 137.289 142.923  0.00  0.00     0.174 HD
ATOM      3  H           0     135.887 137.214 143.356  0.00  0.00     0.174 HD
ATOM      4  C           0     134.961 135.471 143.262  0.00  0.00     0.672 C 
ATOM      5  N           0     133.782 134.790 143.013  0.00  0.00    -0.218 N 
ATOM      6  C           0     133.865 133.417 142.522  0.00  0.00     0.151 C 
ATOM      7  C           0     134.772 132.547 143.371  0.00  0.00     0.180 C 
ATOM      8  N           0     134.062 132.172 144.612  0.00  0.00    -0.215 N 
ATOM      9  C           0     134.971 132.222 145.641  0.00  0.00     0.672 C 
ATOM     10  N           0     134.813 131.622 146.787  0.00  0.00    -0.235 N 
ATOM     11  H           0     134.013 131.099 146.955  0.00  0.00     0.174 HD
ATOM     12  H           0     135.495 131.698 147.473  0.00  0.00     0.174 HD
ATOM     13  C           0     136.024 133.252 143.866  0.00  0.00     0.219 C 
ATOM     14  N           0     136.066 132.981 145.313  0.00  0.00    -0.187 N 
ATOM     15  C           0     137.101 133.440 146.242  0.00  0.00     0.171 C 
ATOM     16  N           0     136.036 134.692 143.603  0.00  0.00    -0.183 N 
ATOM     17  C           0     137.447 135.100 143.726  0.00  0.00     0.150 C 
ATOM     18  C           0     138.240 133.929 143.099  0.00  0.00     0.093 C 
ATOM     19  C           0     137.296 132.705 143.195  0.00  0.00     0.210 C 
ATOM     20  H           0     132.922 135.214 143.163  0.00  0.00     0.178 HD
ATOM     21  H           0     133.125 131.933 144.686  0.00  0.00     0.178 HD
ENDROOT
BRANCH   6  22
ATOM     22  C           0     134.402 133.437 141.090  0.00  0.00     0.208 C 
BRANCH  22  23
ATOM     23  O           0     133.324 133.763 140.173  0.00  0.00    -0.302 OA
BRANCH  23  24
ATOM     24  C           0     133.436 134.824 139.353  0.00  0.00     0.358 C 
ATOM     25  N           0     133.539 136.066 139.868  0.00  0.00    -0.346 N 
ATOM     26  H           0     133.533 136.194 140.829  0.00  0.00     0.161 HD
ATOM     27  H           0     133.619 136.831 139.277  0.00  0.00     0.161 HD
ATOM     28  O           0     133.443 134.664 138.148  0.00  0.00    -0.239 OA
ENDBRANCH  23  24
ENDBRANCH  22  23
ENDBRANCH   6  22
BRANCH  19  29
ATOM     29  O           0     137.888 131.681 143.998  0.00  0.00    -0.362 OA
ATOM     30  H           0     138.034 130.921 143.418  0.00  0.00     0.213 HD
ENDBRANCH  19  29
BRANCH  19  31
ATOM     31  O           0     136.993 132.205 141.892  0.00  0.00    -0.362 OA
ATOM     32  H           0     137.393 131.325 141.830  0.00  0.00     0.213 HD
ENDBRANCH  19  31
TORSDOF 5
ENDMDL
MODEL 2
REMARK VINA RESULT:      -7.5      1.763      5.708
REMARK  5 active torsions:
REMARK  status: ('A' for Active; 'I' for Inactive)
REMARK    1  A    between atoms: C_6  and  C_7 
REMARK    2  A    between atoms: C_7  and  O_8 
REMARK    3  A    between atoms: O_8  and  C_9 
REMARK       I    between atoms: C_9  and  N_10 
REMARK    4  A    between atoms: C_24  and  O_25 
REMARK    5  A    between atoms: C_24  and  O_26 
ROOT
ATOM      1  N           0     134.712 131.897 146.747  0.00  0.00    -0.235 N 
ATOM      2  H           0     134.843 132.036 147.697  0.00  0.00     0.174 HD
ATOM      3  H           0     134.135 131.182 146.436  0.00  0.00     0.174 HD
ATOM      4  C           0     135.306 132.675 145.886  0.00  0.00     0.672 C 
ATOM      5  N           0     136.134 133.712 146.280  0.00  0.00    -0.218 N 
ATOM      6  C           0     137.210 134.119 145.380  0.00  0.00     0.151 C 
ATOM      7  C           0     136.724 134.380 143.968  0.00  0.00     0.180 C 
ATOM      8  N           0     136.047 135.694 143.922  0.00  0.00    -0.215 N 
ATOM      9  C           0     134.950 135.566 143.106  0.00  0.00     0.672 C 
ATOM     10  N           0     134.333 136.569 142.546  0.00  0.00    -0.235 N 
ATOM     11  H           0     134.646 137.475 142.697  0.00  0.00     0.174 HD
ATOM     12  H           0     133.562 136.410 141.980  0.00  0.00     0.174 HD
ATOM     13  C           0     135.661 133.405 143.486  0.00  0.00     0.219 C 
ATOM     14  N           0     134.582 134.253 142.951  0.00  0.00    -0.187 N 
ATOM     15  C           0     133.333 133.776 142.352  0.00  0.00     0.171 C 
ATOM     16  N           0     135.156 132.515 144.534  0.00  0.00    -0.183 N 
ATOM     17  C           0     134.515 131.396 143.819  0.00  0.00     0.150 C 
ATOM     18  C           0     135.435 131.142 142.602  0.00  0.00     0.093 C 
ATOM     19  C           0     136.192 132.476 142.381  0.00  0.00     0.210 C 
ATOM     20  H           0     136.001 134.159 147.132  0.00  0.00     0.178 HD
ATOM     21  H           0     136.327 136.498 144.385  0.00  0.00     0.178 HD
ENDROOT
BRANCH   6  22
ATOM     22  C           0     138.265 133.011 145.341  0.00  0.00     0.208 C 
BRANCH  22  23
ATOM     23  O           0     138.611 132.624 146.697  0.00  0.00    -0.302 OA
BRANCH  23  24
ATOM     24  C           0     138.689 131.321 147.026  0.00  0.00     0.358 C 
ATOM     25  N           0     138.137 130.389 146.223  0.00  0.00    -0.346 N 
ATOM     26  H           0     137.685 130.658 145.408  0.00  0.00     0.161 HD
ATOM     27  H           0     138.193 129.450 146.460  0.00  0.00     0.161 HD
ATOM     28  O           0     139.256 130.985 148.047  0.00  0.00    -0.239 OA
ENDBRANCH  23  24
ENDBRANCH  22  23
ENDBRANCH   6  22
BRANCH  19  29
ATOM     29  O           0     135.895 133.009 141.089  0.00  0.00    -0.362 OA
ATOM     30  H           0     135.178 133.647 141.208  0.00  0.00     0.213 HD
ENDBRANCH  19  29
BRANCH  19  31
ATOM     31  O           0     137.599 132.280 142.530  0.00  0.00    -0.362 OA
ATOM     32  H           0     137.721 131.686 143.284  0.00  0.00     0.213 HD
ENDBRANCH  19  31
TORSDOF 5
ENDMDL
MODEL 3
REMARK VINA RESULT:      -6.9      2.839      4.726
REMARK  5 active torsions:
REMARK  status: ('A' for Active; 'I' for Inactive)
REMARK    1  A    between atoms: C_6  and  C_7 
REMARK    2  A    between atoms: C_7  and  O_8 
REMARK    3  A    between atoms: O_8  and  C_9 
REMARK       I    between atoms: C_9  and  N_10 
REMARK    4  A    between atoms: C_24  and  O_25 
REMARK    5  A    between atoms: C_24  and  O_26 
ROOT
ATOM      1  N           0     139.641 130.606 146.005  0.00  0.00    -0.235 N 
ATOM      2  H           0     140.391 130.761 145.411  0.00  0.00     0.174 HD
ATOM      3  H           0     139.678 129.888 146.657  0.00  0.00     0.174 HD
ATOM      4  C           0     138.585 131.367 145.933  0.00  0.00     0.672 C 
ATOM      5  N           0     138.487 132.407 145.024  0.00  0.00    -0.218 N 
ATOM      6  C           0     137.159 132.792 144.555  0.00  0.00     0.151 C 
ATOM      7  C           0     136.184 133.032 145.690  0.00  0.00     0.180 C 
ATOM      8  N           0     136.465 134.348 146.303  0.00  0.00    -0.215 N 
ATOM      9  C           0     136.319 134.212 147.662  0.00  0.00     0.672 C 
ATOM     10  N           0     136.132 135.208 148.482  0.00  0.00    -0.235 N 
ATOM     11  H           0     136.088 136.115 148.140  0.00  0.00     0.174 HD
ATOM     12  H           0     136.037 135.042 149.433  0.00  0.00     0.174 HD
ATOM     13  C           0     136.324 132.054 146.846  0.00  0.00     0.219 C 
ATOM     14  N           0     136.395 132.898 148.051  0.00  0.00    -0.187 N 
ATOM     15  C           0     136.520 132.416 149.429  0.00  0.00     0.171 C 
ATOM     16  N           0     137.497 131.184 146.746  0.00  0.00    -0.183 N 
ATOM     17  C           0     137.226 130.057 147.656  0.00  0.00     0.150 C 
ATOM     18  C           0     135.715 129.777 147.479  0.00  0.00     0.093 C 
ATOM     19  C           0     135.118 131.103 146.944  0.00  0.00     0.210 C 
ATOM     20  H           0     139.280 132.868 144.709  0.00  0.00     0.178 HD
ATOM     21  H           0     136.707 135.159 145.831  0.00  0.00     0.178 HD
ENDROOT
BRANCH   6  22
ATOM     22  C           0     136.610 131.680 143.660  0.00  0.00     0.208 C 
BRANCH  22  23
ATOM     23  O           0     135.306 132.067 143.152  0.00  0.00    -0.302 OA
BRANCH  23  24
ATOM     24  C           0     135.201 133.084 142.275  0.00  0.00     0.358 C 
ATOM     25  N           0     135.883 133.046 141.113  0.00  0.00    -0.346 N 
ATOM     26  H           0     136.450 132.286 140.909  0.00  0.00     0.161 HD
ATOM     27  H           0     135.807 133.779 140.482  0.00  0.00     0.161 HD
ATOM     28  O           0     134.490 134.036 142.532  0.00  0.00    -0.239 OA
ENDBRANCH  23  24
ENDBRANCH  22  23
ENDBRANCH   6  22
BRANCH  19  29
ATOM     29  O           0     134.146 131.616 147.857  0.00  0.00    -0.362 OA
ATOM     30  H           0     134.631 132.092 148.545  0.00  0.00     0.213 HD
ENDBRANCH  19  29
BRANCH  19  31
ATOM     31  O           0     134.537 130.904 145.655  0.00  0.00    -0.362 OA
ATOM     32  H           0     135.221 131.116 145.004  0.00  0.00     0.213 HD
ENDBRANCH  19  31
TORSDOF 5
ENDMDL
MODEL 4
REMARK VINA RESULT:      -6.9      2.920      4.445
REMARK  5 active torsions:
REMARK  status: ('A' for Active; 'I' for Inactive)
REMARK    1  A    between atoms: C_6  and  C_7 
REMARK    2  A    between atoms: C_7  and  O_8 
REMARK    3  A    between atoms: O_8  and  C_9 
REMARK       I    between atoms: C_9  and  N_10 
REMARK    4  A    between atoms: C_24  and  O_25 
REMARK    5  A    between atoms: C_24  and  O_26 
ROOT
ATOM      1  N           0     136.030 134.630 147.185  0.00  0.00    -0.235 N 
ATOM      2  H           0     135.558 135.339 146.721  0.00  0.00     0.174 HD
ATOM      3  H           0     136.512 134.825 148.005  0.00  0.00     0.174 HD
ATOM      4  C           0     136.014 133.417 146.712  0.00  0.00     0.672 C 
ATOM      5  N           0     135.338 133.088 145.549  0.00  0.00    -0.218 N 
ATOM      6  C           0     135.832 131.968 144.754  0.00  0.00     0.151 C 
ATOM      7  C           0     136.040 130.713 145.578  0.00  0.00     0.180 C 
ATOM      8  N           0     134.729 130.083 145.845  0.00  0.00    -0.215 N 
ATOM      9  C           0     134.748 129.617 147.137  0.00  0.00     0.672 C 
ATOM     10  N           0     133.935 128.709 147.600  0.00  0.00    -0.235 N 
ATOM     11  H           0     133.264 128.318 147.019  0.00  0.00     0.174 HD
ATOM     12  H           0     134.002 128.425 148.525  0.00  0.00     0.174 HD
ATOM     13  C           0     136.611 130.967 146.964  0.00  0.00     0.219 C 
ATOM     14  N           0     135.727 130.226 147.881  0.00  0.00    -0.187 N 
ATOM     15  C           0     135.873 130.148 149.336  0.00  0.00     0.171 C 
ATOM     16  N           0     136.672 132.384 147.328  0.00  0.00    -0.183 N 
ATOM     17  C           0     137.628 132.459 148.447  0.00  0.00     0.150 C 
ATOM     18  C           0     138.731 131.439 148.078  0.00  0.00     0.093 C 
ATOM     19  C           0     138.053 130.449 147.096  0.00  0.00     0.210 C 
ATOM     20  H           0     134.554 133.590 145.272  0.00  0.00     0.178 HD
ATOM     21  H           0     133.991 130.011 145.220  0.00  0.00     0.178 HD
ENDROOT
BRANCH   6  22
ATOM     22  C           0     137.164 132.365 144.116  0.00  0.00     0.208 C 
BRANCH  22  23
ATOM     23  O           0     136.929 133.352 143.078  0.00  0.00    -0.302 OA
BRANCH  23  24
ATOM     24  C           0     137.455 134.586 143.191  0.00  0.00     0.358 C 
ATOM     25  N           0     136.671 135.624 143.548  0.00  0.00    -0.346 N 
ATOM     26  H           0     135.728 135.480 143.722  0.00  0.00     0.161 HD
ATOM     27  H           0     137.050 136.513 143.629  0.00  0.00     0.161 HD
ATOM     28  O           0     138.637 134.766 142.972  0.00  0.00    -0.239 OA
ENDBRANCH  23  24
ENDBRANCH  22  23
ENDBRANCH   6  22
BRANCH  19  29
ATOM     29  O           0     138.066 129.126 147.636  0.00  0.00    -0.362 OA
ATOM     30  H           0     137.191 128.971 148.017  0.00  0.00     0.213 HD
ENDBRANCH  19  29
BRANCH  19  31
ATOM     31  O           0     138.709 130.478 145.828  0.00  0.00    -0.362 OA
ATOM     32  H           0     138.414 131.283 145.379  0.00  0.00     0.213 HD
ENDBRANCH  19  31
TORSDOF 5
ENDMDL
MODEL 5
REMARK VINA RESULT:      -6.6      2.611      4.466
REMARK  5 active torsions:
REMARK  status: ('A' for Active; 'I' for Inactive)
REMARK    1  A    between atoms: C_6  and  C_7 
REMARK    2  A    between atoms: C_7  and  O_8 
REMARK    3  A    between atoms: O_8  and  C_9 
REMARK       I    between atoms: C_9  and  N_10 
REMARK    4  A    between atoms: C_24  and  O_25 
REMARK    5  A    between atoms: C_24  and  O_26 
ROOT
ATOM      1  N           0     134.812 129.893 145.145  0.00  0.00    -0.235 N 
ATOM      2  H           0     134.470 129.528 144.314  0.00  0.00     0.174 HD
ATOM      3  H           0     134.536 129.509 145.993  0.00  0.00     0.174 HD
ATOM      4  C           0     135.646 130.893 145.124  0.00  0.00     0.672 C 
ATOM      5  N           0     136.073 131.471 143.941  0.00  0.00    -0.218 N 
ATOM      6  C           0     136.456 132.880 143.957  0.00  0.00     0.151 C 
ATOM      7  C           0     137.450 133.203 145.055  0.00  0.00     0.180 C 
ATOM      8  N           0     138.793 132.735 144.648  0.00  0.00    -0.215 N 
ATOM      9  C           0     139.401 132.204 145.759  0.00  0.00     0.672 C 
ATOM     10  N           0     140.687 132.029 145.877  0.00  0.00    -0.235 N 
ATOM     11  H           0     141.279 132.280 145.150  0.00  0.00     0.174 HD
ATOM     12  H           0     141.053 131.648 146.690  0.00  0.00     0.174 HD
ATOM     13  C           0     137.191 132.474 146.363  0.00  0.00     0.219 C 
ATOM     14  N           0     138.487 131.880 146.731  0.00  0.00    -0.187 N 
ATOM     15  C           0     138.757 131.084 147.931  0.00  0.00     0.171 C 
ATOM     16  N           0     136.152 131.446 146.271  0.00  0.00    -0.183 N 
ATOM     17  C           0     135.736 131.187 147.662  0.00  0.00     0.150 C 
ATOM     18  C           0     135.754 132.581 148.333  0.00  0.00     0.093 C 
ATOM     19  C           0     136.721 133.431 147.472  0.00  0.00     0.210 C 
ATOM     20  H           0     136.119 130.952 143.122  0.00  0.00     0.178 HD
ATOM     21  H           0     139.174 132.793 143.759  0.00  0.00     0.178 HD
ENDROOT
BRANCH   6  22
ATOM     22  C           0     135.201 133.730 144.164  0.00  0.00     0.208 C 
BRANCH  22  23
ATOM     23  O           0     134.656 134.110 142.874  0.00  0.00    -0.302 OA
BRANCH  23  24
ATOM     24  C           0     134.437 135.408 142.592  0.00  0.00     0.358 C 
ATOM     25  N           0     135.119 136.366 143.252  0.00  0.00    -0.346 N 
ATOM     26  H           0     135.766 136.119 143.930  0.00  0.00     0.161 HD
ATOM     27  H           0     134.961 137.301 143.049  0.00  0.00     0.161 HD
ATOM     28  O           0     133.625 135.718 141.741  0.00  0.00    -0.239 OA
ENDBRANCH  23  24
ENDBRANCH  22  23
ENDBRANCH   6  22
BRANCH  19  29
ATOM     29  O           0     137.829 133.874 148.258  0.00  0.00    -0.362 OA
ATOM     30  H           0     137.655 134.796 148.493  0.00  0.00     0.213 HD
ENDBRANCH  19  29
BRANCH  19  31
ATOM     31  O           0     136.033 134.548 146.905  0.00  0.00    -0.362 OA
ATOM     32  H           0     136.264 135.320 147.441  0.00  0.00     0.213 HD
ENDBRANCH  19  31
TORSDOF 5
ENDMDL
MODEL 6
REMARK VINA RESULT:      -6.5      3.120      5.981
REMARK  5 active torsions:
REMARK  status: ('A' for Active; 'I' for Inactive)
REMARK    1  A    between atoms: C_6  and  C_7 
REMARK    2  A    between atoms: C_7  and  O_8 
REMARK    3  A    between atoms: O_8  and  C_9 
REMARK       I    between atoms: C_9  and  N_10 
REMARK    4  A    between atoms: C_24  and  O_25 
REMARK    5  A    between atoms: C_24  and  O_26 
ROOT
ATOM      1  N           0     139.052 130.511 145.801  0.00  0.00    -0.235 N 
ATOM      2  H           0     139.264 129.705 146.297  0.00  0.00     0.174 HD
ATOM      3  H           0     139.757 131.003 145.351  0.00  0.00     0.174 HD
ATOM      4  C           0     137.820 130.930 145.732  0.00  0.00     0.672 C 
ATOM      5  N           0     136.779 130.260 146.352  0.00  0.00    -0.218 N 
ATOM      6  C           0     135.614 131.032 146.777  0.00  0.00     0.151 C 
ATOM      7  C           0     135.055 131.903 145.669  0.00  0.00     0.180 C 
ATOM      8  N           0     134.285 131.059 144.730  0.00  0.00    -0.215 N 
ATOM      9  C           0     134.546 131.509 143.459  0.00  0.00     0.672 C 
ATOM     10  N           0     133.793 131.261 142.425  0.00  0.00    -0.235 N 
ATOM     11  H           0     132.989 130.728 142.528  0.00  0.00     0.174 HD
ATOM     12  H           0     134.036 131.610 141.553  0.00  0.00     0.174 HD
ATOM     13  C           0     136.114 132.551 144.793  0.00  0.00     0.219 C 
ATOM     14  N           0     135.700 132.251 143.411  0.00  0.00    -0.187 N 
ATOM     15  C           0     136.397 132.678 142.195  0.00  0.00     0.171 C 
ATOM     16  N           0     137.472 132.065 145.049  0.00  0.00    -0.183 N 
ATOM     17  C           0     138.366 133.083 144.469  0.00  0.00     0.150 C 
ATOM     18  C           0     137.673 134.429 144.788  0.00  0.00     0.093 C 
ATOM     19  C           0     136.180 134.073 145.000  0.00  0.00     0.210 C 
ATOM     20  H           0     136.822 129.301 146.499  0.00  0.00     0.178 HD
ATOM     21  H           0     133.701 130.323 144.969  0.00  0.00     0.178 HD
ENDROOT
BRANCH   6  22
ATOM     22  C           0     136.017 131.927 147.951  0.00  0.00     0.208 C 
BRANCH  22  23
ATOM     23  O           0     134.824 132.453 148.590  0.00  0.00    -0.302 OA
BRANCH  23  24
ATOM     24  C           0     134.009 131.629 149.275  0.00  0.00     0.358 C 
ATOM     25  N           0     132.679 131.660 149.056  0.00  0.00    -0.346 N 
ATOM     26  H           0     132.310 132.276 148.404  0.00  0.00     0.161 HD
ATOM     27  H           0     132.092 131.067 149.550  0.00  0.00     0.161 HD
ATOM     28  O           0     134.472 130.857 150.092  0.00  0.00    -0.239 OA
ENDBRANCH  23  24
ENDBRANCH  22  23
ENDBRANCH   6  22
BRANCH  19  29
ATOM     29  O           0     135.366 134.748 144.039  0.00  0.00    -0.362 OA
ATOM     30  H           0     135.745 134.558 143.169  0.00  0.00     0.213 HD
ENDBRANCH  19  29
BRANCH  19  31
ATOM     31  O           0     135.771 134.412 146.326  0.00  0.00    -0.362 OA
ATOM     32  H           0     136.550 134.766 146.778  0.00  0.00     0.213 HD
ENDBRANCH  19  31
TORSDOF 5
ENDMDL
MODEL 7
REMARK VINA RESULT:      -6.5      3.825      6.282
REMARK  5 active torsions:
REMARK  status: ('A' for Active; 'I' for Inactive)
REMARK    1  A    between atoms: C_6  and  C_7 
REMARK    2  A    between atoms: C_7  and  O_8 
REMARK    3  A    between atoms: O_8  and  C_9 
REMARK       I    between atoms: C_9  and  N_10 
REMARK    4  A    between atoms: C_24  and  O_25 
REMARK    5  A    between atoms: C_24  and  O_26 
ROOT
ATOM      1  N           0     136.150 134.945 148.203  0.00  0.00    -0.235 N 
ATOM      2  H           0     136.045 135.209 149.129  0.00  0.00     0.174 HD
ATOM      3  H           0     136.105 135.612 147.500  0.00  0.00     0.174 HD
ATOM      4  C           0     136.359 133.694 147.901  0.00  0.00     0.672 C 
ATOM      5  N           0     136.437 132.707 148.867  0.00  0.00    -0.218 N 
ATOM      6  C           0     136.048 131.347 148.501  0.00  0.00     0.151 C 
ATOM      7  C           0     136.736 130.863 147.239  0.00  0.00     0.180 C 
ATOM      8  N           0     138.131 130.491 147.558  0.00  0.00    -0.215 N 
ATOM      9  C           0     138.920 130.913 146.516  0.00  0.00     0.672 C 
ATOM     10  N           0     140.116 130.455 146.271  0.00  0.00    -0.235 N 
ATOM     11  H           0     140.500 129.773 146.844  0.00  0.00     0.174 HD
ATOM     12  H           0     140.622 130.797 145.517  0.00  0.00     0.174 HD
ATOM     13  C           0     136.879 131.926 146.162  0.00  0.00     0.219 C 
ATOM     14  N           0     138.296 131.876 145.763  0.00  0.00    -0.187 N 
ATOM     15  C           0     138.928 132.707 144.736  0.00  0.00     0.171 C 
ATOM     16  N           0     136.508 133.272 146.606  0.00  0.00    -0.183 N 
ATOM     17  C           0     136.276 134.040 145.369  0.00  0.00     0.150 C 
ATOM     18  C           0     135.580 133.038 144.419  0.00  0.00     0.093 C 
ATOM     19  C           0     135.983 131.637 144.945  0.00  0.00     0.210 C 
ATOM     20  H           0     136.743 132.912 149.765  0.00  0.00     0.178 HD
ATOM     21  H           0     138.433 130.033 148.357  0.00  0.00     0.178 HD
ENDROOT
BRANCH   6  22
ATOM     22  C           0     134.535 131.308 148.282  0.00  0.00     0.208 C 
BRANCH  22  23
ATOM     23  O           0     133.956 130.251 149.092  0.00  0.00    -0.302 OA
BRANCH  23  24
ATOM     24  C           0     133.982 128.978 148.655  0.00  0.00     0.358 C 
ATOM     25  N           0     133.771 128.709 147.351  0.00  0.00    -0.346 N 
ATOM     26  H           0     133.602 129.432 146.728  0.00  0.00     0.161 HD
ATOM     27  H           0     133.789 127.791 147.036  0.00  0.00     0.161 HD
ATOM     28  O           0     134.194 128.071 149.436  0.00  0.00    -0.239 OA
ENDBRANCH  23  24
ENDBRANCH  22  23
ENDBRANCH   6  22
BRANCH  19  29
ATOM     29  O           0     136.709 130.919 143.945  0.00  0.00    -0.362 OA
ATOM     30  H           0     137.445 130.482 144.394  0.00  0.00     0.213 HD
ENDBRANCH  19  29
BRANCH  19  31
ATOM     31  O           0     134.825 130.903 145.345  0.00  0.00    -0.362 OA
ATOM     32  H           0     134.665 130.237 144.661  0.00  0.00     0.213 HD
ENDBRANCH  19  31
TORSDOF 5
ENDMDL
MODEL 8
REMARK VINA RESULT:      -6.5      3.998      6.868
REMARK  5 active torsions:
REMARK  status: ('A' for Active; 'I' for Inactive)
REMARK    1  A    between atoms: C_6  and  C_7 
REMARK    2  A    between atoms: C_7  and  O_8 
REMARK    3  A    between atoms: O_8  and  C_9 
REMARK       I    between atoms: C_9  and  N_10 
REMARK    4  A    between atoms: C_24  and  O_25 
REMARK    5  A    between atoms: C_24  and  O_26 
ROOT
ATOM      1  N           0     139.202 129.578 147.757  0.00  0.00    -0.235 N 
ATOM      2  H           0     139.344 128.635 147.931  0.00  0.00     0.174 HD
ATOM      3  H           0     139.915 130.215 147.926  0.00  0.00     0.174 HD
ATOM      4  C           0     138.058 129.991 147.288  0.00  0.00     0.672 C 
ATOM      5  N           0     137.014 129.121 147.025  0.00  0.00    -0.218 N 
ATOM      6  C           0     135.649 129.630 147.117  0.00  0.00     0.151 C 
ATOM      7  C           0     135.446 130.905 146.322  0.00  0.00     0.180 C 
ATOM      8  N           0     135.336 130.570 144.886  0.00  0.00    -0.215 N 
ATOM      9  C           0     136.013 131.535 144.182  0.00  0.00     0.672 C 
ATOM     10  N           0     135.836 131.776 142.913  0.00  0.00    -0.235 N 
ATOM     11  H           0     135.192 131.257 142.407  0.00  0.00     0.174 HD
ATOM     12  H           0     136.349 132.473 142.475  0.00  0.00     0.174 HD
ATOM     13  C           0     136.619 131.869 146.382  0.00  0.00     0.219 C 
ATOM     14  N           0     136.899 132.216 144.978  0.00  0.00    -0.187 N 
ATOM     15  C           0     137.942 133.133 144.513  0.00  0.00     0.171 C 
ATOM     16  N           0     137.808 131.313 147.031  0.00  0.00    -0.183 N 
ATOM     17  C           0     138.636 132.478 147.394  0.00  0.00     0.150 C 
ATOM     18  C           0     137.614 133.546 147.851  0.00  0.00     0.093 C 
ATOM     19  C           0     136.278 133.142 147.177  0.00  0.00     0.210 C 
ATOM     20  H           0     137.186 128.196 146.784  0.00  0.00     0.178 HD
ATOM     21  H           0     134.870 129.807 144.510  0.00  0.00     0.178 HD
ENDROOT
BRANCH   6  22
ATOM     22  C           0     135.324 129.910 148.586  0.00  0.00     0.208 C 
BRANCH  22  23
ATOM     23  O           0     133.890 130.078 148.741  0.00  0.00    -0.302 OA
BRANCH  23  24
ATOM     24  C           0     133.130 129.039 149.137  0.00  0.00     0.358 C 
ATOM     25  N           0     131.944 128.805 148.540  0.00  0.00    -0.346 N 
ATOM     26  H           0     131.640 129.385 147.825  0.00  0.00     0.161 HD
ATOM     27  H           0     131.397 128.057 148.825  0.00  0.00     0.161 HD
ATOM     28  O           0     133.513 128.312 150.033  0.00  0.00    -0.239 OA
ENDBRANCH  23  24
ENDBRANCH  22  23
ENDBRANCH   6  22
BRANCH  19  29
ATOM     29  O           0     135.829 134.177 146.300  0.00  0.00    -0.362 OA
ATOM     30  H           0     134.865 134.117 146.268  0.00  0.00     0.213 HD
ENDBRANCH  19  29
BRANCH  19  31
ATOM     31  O           0     135.287 132.859 148.165  0.00  0.00    -0.362 OA
ATOM     32  H           0     134.682 132.211 147.777  0.00  0.00     0.213 HD
ENDBRANCH  19  31
TORSDOF 5
ENDMDL
MODEL 9
REMARK VINA RESULT:      -6.3      3.120      5.362
REMARK  5 active torsions:
REMARK  status: ('A' for Active; 'I' for Inactive)
REMARK    1  A    between atoms: C_6  and  C_7 
REMARK    2  A    between atoms: C_7  and  O_8 
REMARK    3  A    between atoms: O_8  and  C_9 
REMARK       I    between atoms: C_9  and  N_10 
REMARK    4  A    between atoms: C_24  and  O_25 
REMARK    5  A    between atoms: C_24  and  O_26 
ROOT
ATOM      1  N           0     134.050 128.947 146.929  0.00  0.00    -0.235 N 
ATOM      2  H           0     133.569 128.473 146.233  0.00  0.00     0.174 HD
ATOM      3  H           0     133.819 128.806 147.861  0.00  0.00     0.174 HD
ATOM      4  C           0     135.011 129.768 146.613  0.00  0.00     0.672 C 
ATOM      5  N           0     135.381 129.999 145.300  0.00  0.00    -0.218 N 
ATOM      6  C           0     135.960 131.296 144.961  0.00  0.00     0.151 C 
ATOM      7  C           0     137.107 131.681 145.875  0.00  0.00     0.180 C 
ATOM      8  N           0     138.315 130.922 145.485  0.00  0.00    -0.215 N 
ATOM      9  C           0     138.962 130.551 146.639  0.00  0.00     0.672 C 
ATOM     10  N           0     140.215 130.197 146.695  0.00  0.00    -0.235 N 
ATOM     11  H           0     140.751 130.185 145.886  0.00  0.00     0.174 HD
ATOM     12  H           0     140.611 129.945 147.543  0.00  0.00     0.174 HD
ATOM     13  C           0     136.894 131.304 147.332  0.00  0.00     0.219 C 
ATOM     14  N           0     138.126 130.599 147.726  0.00  0.00    -0.187 N 
ATOM     15  C           0     138.411 130.047 149.053  0.00  0.00     0.171 C 
ATOM     16  N           0     135.715 130.465 147.560  0.00  0.00    -0.183 N 
ATOM     17  C           0     135.425 130.584 149.000  0.00  0.00     0.150 C 
ATOM     18  C           0     135.716 132.067 149.329  0.00  0.00     0.093 C 
ATOM     19  C           0     136.693 132.542 148.223  0.00  0.00     0.210 C 
ATOM     20  H           0     135.261 129.315 144.622  0.00  0.00     0.178 HD
ATOM     21  H           0     138.599 130.723 144.580  0.00  0.00     0.178 HD
ENDROOT
BRANCH   6  22
ATOM     22  C           0     134.871 132.365 145.063  0.00  0.00     0.208 C 
BRANCH  22  23
ATOM     23  O           0     135.456 133.676 144.846  0.00  0.00    -0.302 OA
BRANCH  23  24
ATOM     24  C           0     135.382 134.254 143.633  0.00  0.00     0.358 C 
ATOM     25  N           0     136.451 134.904 143.129  0.00  0.00    -0.346 N 
ATOM     26  H           0     137.272 134.954 143.641  0.00  0.00     0.161 HD
ATOM     27  H           0     136.398 135.320 142.255  0.00  0.00     0.161 HD
ATOM     28  O           0     134.352 134.190 142.990  0.00  0.00    -0.239 OA
ENDBRANCH  23  24
ENDBRANCH  22  23
ENDBRANCH   6  22
BRANCH  19  29
ATOM     29  O           0     137.934 132.955 148.799  0.00  0.00    -0.362 OA
ATOM     30  H           0     138.188 132.272 149.435  0.00  0.00     0.213 HD
ENDBRANCH  19  29
BRANCH  19  31
ATOM     31  O           0     136.112 133.607 147.469  0.00  0.00    -0.362 OA
ATOM     32  H           0     136.607 133.665 146.640  0.00  0.00     0.213 HD
ENDBRANCH  19  31
TORSDOF 5
ENDMDL
