# created with PyMOL 2.3.4
@<TRIPOS>MOLECULE
ligand_out_0001
49 53 1                 
SMALL
USER_CHARGES
@<TRIPOS>ATOM
1	   N	132.124	135.362	130.875	N.3	1	UNK0	-0.235	
2	   N	133.816	135.028	132.515	N.3	1	UNK0	-0.211	
3	   N	133.212	134.766	135.336	N.pl3	1	UNK0	-0.185	
4	   N	131.142	134.356	134.564	N.3	1	UNK0	-0.191	
5	   N	132.019	133.595	132.471	N.3	1	UNK0	-0.180	
6	   N	134.128	131.619	132.664	N.pl3	1	UNK0	-0.219	
7	   N	134.039	135.927	139.248	N.pl3	1	UNK0	-0.213	
8	   N	131.440	136.158	136.071	N.3	1	UNK0	-0.235	
9	   C	132.602	134.710	131.898	C.3	1	UNK0	0.672	
10	   C	134.402	133.995	133.381	C.3	1	UNK0	0.221	
11	   C	133.386	133.608	134.453	C.3	1	UNK0	0.192	
12	   C	131.901	135.155	135.367	C.3	1	UNK0	0.674	
13	   C	131.994	133.349	133.916	C.3	1	UNK0	0.221	
14	   C	131.362	132.479	131.796	C.3	1	UNK0	0.190	
15	   C	131.304	131.301	132.774	C.3	1	UNK0	0.161	
16	   C	132.285	130.153	132.578	C.3	1	UNK0	0.075	
17	   C	133.533	130.576	131.803	C.3	1	UNK0	0.129	
18	   C	134.626	129.500	131.911	C.3	1	UNK0	0.061	
19	   C	135.277	129.767	133.279	C.2	1	UNK0	0.210	
20	   C	134.237	132.914	132.342	C.2	1	UNK0	0.269	
21	   C	131.472	131.927	134.159	C.3	1	UNK0	0.244	
22	   C	134.297	135.416	136.089	C.2	1	UNK0	0.325	
23	   C	133.742	134.924	138.396	C.2	1	UNK0	0.386	
24	   C	134.047	128.091	131.844	C.2	1	UNK0	0.173	
25	   O	134.607	130.930	133.808	O.2	1	UNK0	-0.274	
26	   O	134.266	133.200	131.159	O.2	1	UNK0	-0.269	
27	   O	134.527	134.694	137.327	O.2	1	UNK0	-0.282	
28	   O	132.765	134.228	138.595	O.co2	1	UNK0	-0.236	
29	   O	133.213	136.168	140.372	O.3	1	UNK0	-0.285	
30	   O	132.353	131.184	134.988	O.2	1	UNK0	-0.360	
31	   O	130.185	132.010	134.795	O.2	1	UNK0	-0.360	
32	   O	129.975	130.755	132.705	O.2	1	UNK0	-0.245	
33	   O	128.830	128.601	132.868	O.3	1	UNK0	-0.579	
34	   O	130.575	128.891	131.242	O.3	1	UNK0	-0.579	
35	   O	131.152	128.764	133.614	O.3	1	UNK0	-0.274	
36	   O	134.063	127.507	133.147	O.2	1	UNK0	-0.400	
37	   S	130.125	129.245	132.598	S.3	1	UNK0	0.241	
38	   H	132.616	136.111	130.504	 H	1	UNK0	0.174	
39	   H	131.277	135.096	130.483	 H	1	UNK0	0.174	
40	   H	134.249	135.898	132.371	 H	1	UNK0	0.178	
41	   H	130.183	134.435	134.429	 H	1	UNK0	0.180	
42	   H	134.818	136.482	139.090	 H	1	UNK0	0.199	
43	   H	132.331	135.843	140.145	 H	1	UNK0	0.244	
44	   H	130.663	136.648	135.764	 H	1	UNK0	0.174	
45	   H	131.878	136.409	136.899	 H	1	UNK0	0.174	
46	   H	131.902	130.358	135.205	 H	1	UNK0	0.213	
47	   H	129.755	131.154	134.670	 H	1	UNK0	0.213	
48	   H	131.079	127.801	133.651	 H	1	UNK0	0.234	
49	   H	133.706	128.170	133.755	 H	1	UNK0	0.209	
@<TRIPOS>BOND
1 1 9 1
2 1 38 1
3 1 39 1
4 2 10 1
5 2 40 1
6 3 12 1
7 3 22 1
8 4 41 1
9 5 14 1
10 6 20 1
11 7 29 1
12 7 42 1
13 8 44 1
14 8 45 1
15 2 9 1
16 5 9 1
17 10 11 1
18 10 20 1
19 3 11 1
20 11 13 1
21 4 12 1
22 8 12 1
23 4 13 1
24 5 13 1
25 13 21 1
26 14 15 1
27 15 16 1
28 15 21 1
29 15 32 2
30 16 17 1
31 6 17 1
32 17 18 1
33 18 19 1
34 18 24 1
35 19 25 2
36 20 26 2
37 21 30 2
38 21 31 2
39 22 27 2
40 7 23 1
41 23 28 2
42 24 36 2
43 6 25 1
44 23 27 2
45 29 43 1
46 30 46 1
47 31 47 1
48 32 37 1
49 35 48 1
50 36 49 1
51 33 37 1
52 34 37 1
53 35 37 1
@<TRIPOS>SUBSTRUCTURE
1	UNK0	1	GROUP	1 ****	UNK
