# created with PyMOL 2.3.4
@<TRIPOS>MOLECULE
ligand_out_0001
30 32 1                 
SMALL
USER_CHARGES
@<TRIPOS>ATOM
1	   N	135.493	132.673	147.056	N.3	1	UNK0	-0.235	
2	   N	136.760	134.419	146.118	N.3	1	UNK0	-0.218	
3	   N	136.188	136.102	143.602	N.3	1	UNK0	-0.216	
4	   N	134.227	136.807	142.481	N.3	1	UNK0	-0.235	
5	   N	134.601	134.556	143.102	N.3	1	UNK0	-0.191	
6	   N	135.500	133.021	144.741	N.3	1	UNK0	-0.183	
7	   C	135.897	133.342	146.013	C.3	1	UNK0	0.672	
8	   C	137.639	134.714	144.991	C.3	1	UNK0	0.151	
9	   C	136.891	134.804	143.674	C.3	1	UNK0	0.180	
10	   C	134.961	135.878	143.028	C.3	1	UNK0	0.670	
11	   C	135.779	133.778	143.520	C.3	1	UNK0	0.217	
12	   C	134.762	131.825	144.298	C.3	1	UNK0	0.150	
13	   C	135.443	131.425	142.967	C.3	1	UNK0	0.093	
14	   C	136.115	132.723	142.452	C.3	1	UNK0	0.209	
15	   C	138.692	133.610	144.884	C.2	1	UNK0	0.206	
16	   C	140.465	132.672	146.238	C.2	1	UNK0	0.254	
17	   C	140.745	132.064	147.588	C.3	1	UNK0	0.126	
18	   O	139.485	133.578	146.100	O.2	1	UNK0	-0.320	
19	   O	141.125	132.344	145.280	O.co2	1	UNK0	-0.266	
20	   O	135.570	133.097	141.186	O.2	1	UNK0	-0.362	
21	   O	137.529	132.547	142.356	O.2	1	UNK0	-0.362	
22	   H	135.796	132.925	147.942	 H	1	UNK0	0.174	
23	   H	134.884	131.926	146.946	 H	1	UNK0	0.174	
24	   H	134.542	137.725	142.462	 H	1	UNK0	0.174	
25	   H	133.369	136.581	142.092	 H	1	UNK0	0.174	
26	   H	136.779	134.965	146.921	 H	1	UNK0	0.178	
27	   H	136.532	136.958	143.905	 H	1	UNK0	0.178	
28	   H	133.722	134.195	142.909	 H	1	UNK0	0.180	
29	   H	135.082	132.332	140.854	 H	1	UNK0	0.213	
30	   H	137.881	132.620	143.254	 H	1	UNK0	0.213	
@<TRIPOS>BOND
1 1 7 1
2 1 22 1
3 1 23 1
4 2 8 1
5 2 26 1
6 3 10 1
7 3 27 1
8 4 24 1
9 4 25 1
10 5 28 1
11 6 12 1
12 2 7 1
13 6 7 1
14 8 9 1
15 8 15 1
16 3 9 1
17 9 11 1
18 4 10 1
19 5 10 1
20 5 11 1
21 6 11 1
22 11 14 1
23 12 13 1
24 13 14 1
25 14 20 2
26 14 21 2
27 15 18 2
28 16 17 1
29 16 19 2
30 16 18 2
31 20 29 1
32 21 30 1
@<TRIPOS>SUBSTRUCTURE
1	UNK0	1	GROUP	1 ****	UNK
