MODEL 1
REMARK VINA RESULT:      -8.1      0.000      0.000
REMARK  5 active torsions:
REMARK  status: ('A' for Active; 'I' for Inactive)
REMARK    1  A    between atoms: C_6  and  C_7 
REMARK    2  A    between atoms: C_7  and  O_8 
REMARK    3  A    between atoms: O_8  and  C_9 
REMARK    4  A    between atoms: C_23  and  O_24 
REMARK    5  A    between atoms: C_23  and  O_25 
ROOT
ATOM      1  N           0     135.493 132.673 147.056  0.00  0.00    -0.235 N 
ATOM      2  H           0     135.796 132.925 147.942  0.00  0.00     0.174 HD
ATOM      3  H           0     134.884 131.926 146.946  0.00  0.00     0.174 HD
ATOM      4  C           0     135.897 133.342 146.013  0.00  0.00     0.672 C 
ATOM      5  N           0     136.760 134.419 146.118  0.00  0.00    -0.218 N 
ATOM      6  C           0     137.639 134.714 144.991  0.00  0.00     0.151 C 
ATOM      7  C           0     136.891 134.804 143.674  0.00  0.00     0.180 C 
ATOM      8  N           0     136.188 136.102 143.602  0.00  0.00    -0.216 N 
ATOM      9  C           0     134.961 135.878 143.028  0.00  0.00     0.670 C 
ATOM     10  N           0     134.227 136.807 142.481  0.00  0.00    -0.235 N 
ATOM     11  H           0     134.542 137.725 142.462  0.00  0.00     0.174 HD
ATOM     12  H           0     133.369 136.581 142.092  0.00  0.00     0.174 HD
ATOM     13  C           0     135.779 133.778 143.520  0.00  0.00     0.217 C 
ATOM     14  N           0     134.601 134.556 143.102  0.00  0.00    -0.191 N 
ATOM     15  N           0     135.500 133.021 144.741  0.00  0.00    -0.183 N 
ATOM     16  C           0     134.762 131.825 144.298  0.00  0.00     0.150 C 
ATOM     17  C           0     135.443 131.425 142.967  0.00  0.00     0.093 C 
ATOM     18  C           0     136.115 132.723 142.452  0.00  0.00     0.209 C 
ATOM     19  H           0     136.779 134.965 146.921  0.00  0.00     0.178 HD
ATOM     20  H           0     136.532 136.958 143.905  0.00  0.00     0.178 HD
ATOM     21  H           0     133.722 134.195 142.909  0.00  0.00     0.180 HD
ENDROOT
BRANCH   6  22
ATOM     22  C           0     138.692 133.610 144.884  0.00  0.00     0.206 C 
BRANCH  22  23
ATOM     23  O           0     139.485 133.578 146.100  0.00  0.00    -0.320 OA
BRANCH  23  24
ATOM     24  C           0     140.465 132.672 146.238  0.00  0.00     0.254 C 
ATOM     25  C           0     140.745 132.064 147.588  0.00  0.00     0.126 C 
ATOM     26  O           0     141.125 132.344 145.280  0.00  0.00    -0.266 OA
ENDBRANCH  23  24
ENDBRANCH  22  23
ENDBRANCH   6  22
BRANCH  18  27
ATOM     27  O           0     135.570 133.097 141.186  0.00  0.00    -0.362 OA
ATOM     28  H           0     135.082 132.332 140.854  0.00  0.00     0.213 HD
ENDBRANCH  18  27
BRANCH  18  29
ATOM     29  O           0     137.529 132.547 142.356  0.00  0.00    -0.362 OA
ATOM     30  H           0     137.881 132.620 143.254  0.00  0.00     0.213 HD
ENDBRANCH  18  29
TORSDOF 5
ENDMDL
MODEL 2
REMARK VINA RESULT:      -7.1      2.436      5.374
REMARK  5 active torsions:
REMARK  status: ('A' for Active; 'I' for Inactive)
REMARK    1  A    between atoms: C_6  and  C_7 
REMARK    2  A    between atoms: C_7  and  O_8 
REMARK    3  A    between atoms: O_8  and  C_9 
REMARK    4  A    between atoms: C_23  and  O_24 
REMARK    5  A    between atoms: C_23  and  O_25 
ROOT
ATOM      1  N           0     136.067 134.802 147.800  0.00  0.00    -0.235 N 
ATOM      2  H           0     135.236 134.729 148.295  0.00  0.00     0.174 HD
ATOM      3  H           0     136.623 135.590 147.900  0.00  0.00     0.174 HD
ATOM      4  C           0     136.440 133.836 147.008  0.00  0.00     0.672 C 
ATOM      5  N           0     135.684 132.689 146.838  0.00  0.00    -0.218 N 
ATOM      6  C           0     135.780 131.980 145.566  0.00  0.00     0.151 C 
ATOM      7  C           0     137.214 131.694 145.162  0.00  0.00     0.180 C 
ATOM      8  N           0     137.725 130.556 145.955  0.00  0.00    -0.216 N 
ATOM      9  C           0     139.028 130.835 146.290  0.00  0.00     0.670 C 
ATOM     10  N           0     139.897 129.937 146.662  0.00  0.00    -0.235 N 
ATOM     11  H           0     139.637 129.004 146.716  0.00  0.00     0.174 HD
ATOM     12  H           0     140.802 130.201 146.884  0.00  0.00     0.174 HD
ATOM     13  C           0     138.185 132.822 145.476  0.00  0.00     0.217 C 
ATOM     14  N           0     139.302 132.176 146.184  0.00  0.00    -0.191 N 
ATOM     15  N           0     137.603 133.894 146.285  0.00  0.00    -0.183 N 
ATOM     16  C           0     138.499 135.050 146.102  0.00  0.00     0.150 C 
ATOM     17  C           0     138.908 134.987 144.612  0.00  0.00     0.093 C 
ATOM     18  C           0     138.701 133.508 144.199  0.00  0.00     0.209 C 
ATOM     19  H           0     135.106 132.364 147.547  0.00  0.00     0.178 HD
ATOM     20  H           0     137.230 129.757 146.197  0.00  0.00     0.178 HD
ATOM     21  H           0     140.097 132.620 146.515  0.00  0.00     0.180 HD
ENDROOT
BRANCH   6  22
ATOM     22  C           0     135.122 132.828 144.476  0.00  0.00     0.206 C 
BRANCH  22  23
ATOM     23  O           0     134.901 132.014 143.296  0.00  0.00    -0.320 OA
BRANCH  23  24
ATOM     24  C           0     134.604 132.596 142.124  0.00  0.00     0.254 C 
ATOM     25  C           0     133.174 132.929 141.787  0.00  0.00     0.126 C 
ATOM     26  O           0     135.485 132.853 141.337  0.00  0.00    -0.266 OA
ENDBRANCH  23  24
ENDBRANCH  22  23
ENDBRANCH   6  22
BRANCH  18  27
ATOM     27  O           0     139.938 132.929 143.783  0.00  0.00    -0.362 OA
ATOM     28  H           0     139.819 132.643 142.867  0.00  0.00     0.213 HD
ENDBRANCH  18  27
BRANCH  18  29
ATOM     29  O           0     137.728 133.413 143.157  0.00  0.00    -0.362 OA
ATOM     30  H           0     137.700 132.485 142.886  0.00  0.00     0.213 HD
ENDBRANCH  18  29
TORSDOF 5
ENDMDL
MODEL 3
REMARK VINA RESULT:      -6.8      3.366      4.855
REMARK  5 active torsions:
REMARK  status: ('A' for Active; 'I' for Inactive)
REMARK    1  A    between atoms: C_6  and  C_7 
REMARK    2  A    between atoms: C_7  and  O_8 
REMARK    3  A    between atoms: O_8  and  C_9 
REMARK    4  A    between atoms: C_23  and  O_24 
REMARK    5  A    between atoms: C_23  and  O_25 
ROOT
ATOM      1  N           0     139.126 130.434 145.969  0.00  0.00    -0.235 N 
ATOM      2  H           0     139.295 129.585 146.407  0.00  0.00     0.174 HD
ATOM      3  H           0     139.862 130.936 145.586  0.00  0.00     0.174 HD
ATOM      4  C           0     137.910 130.896 145.891  0.00  0.00     0.672 C 
ATOM      5  N           0     136.827 130.212 146.416  0.00  0.00    -0.218 N 
ATOM      6  C           0     135.671 130.986 146.859  0.00  0.00     0.151 C 
ATOM      7  C           0     135.179 131.959 145.806  0.00  0.00     0.180 C 
ATOM      8  N           0     134.422 131.218 144.775  0.00  0.00    -0.216 N 
ATOM      9  C           0     134.746 131.758 143.554  0.00  0.00     0.670 C 
ATOM     10  N           0     134.025 131.617 142.476  0.00  0.00    -0.235 N 
ATOM     11  H           0     133.202 131.103 142.507  0.00  0.00     0.174 HD
ATOM     12  H           0     134.311 132.025 141.645  0.00  0.00     0.174 HD
ATOM     13  C           0     136.291 132.640 145.022  0.00  0.00     0.217 C 
ATOM     14  N           0     135.921 132.464 143.608  0.00  0.00    -0.191 N 
ATOM     15  N           0     137.622 132.092 145.287  0.00  0.00    -0.183 N 
ATOM     16  C           0     138.567 133.123 144.824  0.00  0.00     0.150 C 
ATOM     17  C           0     137.902 134.461 145.225  0.00  0.00     0.093 C 
ATOM     18  C           0     136.392 134.139 145.354  0.00  0.00     0.209 C 
ATOM     19  H           0     136.836 129.245 146.487  0.00  0.00     0.178 HD
ATOM     20  H           0     133.807 130.483 144.932  0.00  0.00     0.178 HD
ATOM     21  H           0     136.421 132.794 142.845  0.00  0.00     0.180 HD
ENDROOT
BRANCH   6  22
ATOM     22  C           0     136.053 131.771 148.115  0.00  0.00     0.206 C 
BRANCH  22  23
ATOM     23  O           0     134.865 132.380 148.685  0.00  0.00    -0.320 OA
BRANCH  23  24
ATOM     24  C           0     134.017 131.642 149.417  0.00  0.00     0.254 C 
ATOM     25  C           0     134.549 130.580 150.345  0.00  0.00     0.126 C 
ATOM     26  O           0     132.826 131.827 149.332  0.00  0.00    -0.266 OA
ENDBRANCH  23  24
ENDBRANCH  22  23
ENDBRANCH   6  22
BRANCH  18  27
ATOM     27  O           0     135.636 134.913 144.422  0.00  0.00    -0.362 OA
ATOM     28  H           0     135.545 135.797 144.801  0.00  0.00     0.213 HD
ENDBRANCH  18  27
BRANCH  18  29
ATOM     29  O           0     135.942 134.383 146.688  0.00  0.00    -0.362 OA
ATOM     30  H           0     134.978 134.319 146.673  0.00  0.00     0.213 HD
ENDBRANCH  18  29
TORSDOF 5
ENDMDL
MODEL 4
REMARK VINA RESULT:      -6.8      2.486      5.427
REMARK  5 active torsions:
REMARK  status: ('A' for Active; 'I' for Inactive)
REMARK    1  A    between atoms: C_6  and  C_7 
REMARK    2  A    between atoms: C_7  and  O_8 
REMARK    3  A    between atoms: O_8  and  C_9 
REMARK    4  A    between atoms: C_23  and  O_24 
REMARK    5  A    between atoms: C_23  and  O_25 
ROOT
ATOM      1  N           0     135.184 130.535 143.402  0.00  0.00    -0.235 N 
ATOM      2  H           0     134.924 130.407 142.477  0.00  0.00     0.174 HD
ATOM      3  H           0     134.893 129.904 144.079  0.00  0.00     0.174 HD
ATOM      4  C           0     135.930 131.551 143.735  0.00  0.00     0.672 C 
ATOM      5  N           0     136.375 132.474 142.805  0.00  0.00    -0.218 N 
ATOM      6  C           0     136.634 133.838 143.255  0.00  0.00     0.151 C 
ATOM      7  C           0     137.532 133.892 144.476  0.00  0.00     0.180 C 
ATOM      8  N           0     138.931 133.650 144.061  0.00  0.00    -0.216 N 
ATOM      9  C           0     139.516 132.858 145.019  0.00  0.00     0.670 C 
ATOM     10  N           0     140.804 132.740 145.184  0.00  0.00    -0.235 N 
ATOM     11  H           0     141.414 133.230 144.610  0.00  0.00     0.174 HD
ATOM     12  H           0     141.153 132.164 145.881  0.00  0.00     0.174 HD
ATOM     13  C           0     137.260 132.796 145.496  0.00  0.00     0.217 C 
ATOM     14  N           0     138.578 132.207 145.781  0.00  0.00    -0.191 N 
ATOM     15  N           0     136.320 131.776 145.030  0.00  0.00    -0.183 N 
ATOM     16  C           0     135.847 131.096 146.249  0.00  0.00     0.150 C 
ATOM     17  C           0     135.707 132.231 147.291  0.00  0.00     0.093 C 
ATOM     18  C           0     136.647 133.357 146.790  0.00  0.00     0.209 C 
ATOM     19  H           0     136.512 132.220 141.878  0.00  0.00     0.178 HD
ATOM     20  H           0     139.357 133.989 143.258  0.00  0.00     0.178 HD
ATOM     21  H           0     138.755 131.484 146.402  0.00  0.00     0.180 HD
ENDROOT
BRANCH   6  22
ATOM     22  C           0     135.301 134.508 143.595  0.00  0.00     0.206 C 
BRANCH  22  23
ATOM     23  O           0     134.627 134.895 142.369  0.00  0.00    -0.320 OA
BRANCH  23  24
ATOM     24  C           0     133.763 134.052 141.783  0.00  0.00     0.254 C 
ATOM     25  C           0     133.355 134.267 140.349  0.00  0.00     0.126 C 
ATOM     26  O           0     133.311 133.120 142.406  0.00  0.00    -0.266 OA
ENDBRANCH  23  24
ENDBRANCH  22  23
ENDBRANCH   6  22
BRANCH  18  27
ATOM     27  O           0     137.665 133.622 147.756  0.00  0.00    -0.362 OA
ATOM     28  H           0     138.443 133.115 147.488  0.00  0.00     0.213 HD
ENDBRANCH  18  27
BRANCH  18  29
ATOM     29  O           0     135.900 134.543 146.513  0.00  0.00    -0.362 OA
ATOM     30  H           0     135.133 134.273 145.989  0.00  0.00     0.213 HD
ENDBRANCH  18  29
TORSDOF 5
ENDMDL
MODEL 5
REMARK VINA RESULT:      -6.7      2.594      3.316
REMARK  5 active torsions:
REMARK  status: ('A' for Active; 'I' for Inactive)
REMARK    1  A    between atoms: C_6  and  C_7 
REMARK    2  A    between atoms: C_7  and  O_8 
REMARK    3  A    between atoms: O_8  and  C_9 
REMARK    4  A    between atoms: C_23  and  O_24 
REMARK    5  A    between atoms: C_23  and  O_25 
ROOT
ATOM      1  N           0     136.041 134.764 147.574  0.00  0.00    -0.235 N 
ATOM      2  H           0     136.473 135.632 147.536  0.00  0.00     0.174 HD
ATOM      3  H           0     135.462 134.543 148.320  0.00  0.00     0.174 HD
ATOM      4  C           0     136.233 133.899 146.618  0.00  0.00     0.672 C 
ATOM      5  N           0     137.044 134.171 145.530  0.00  0.00    -0.218 N 
ATOM      6  C           0     137.709 133.054 144.866  0.00  0.00     0.151 C 
ATOM      7  C           0     136.751 131.935 144.504  0.00  0.00     0.180 C 
ATOM      8  N           0     135.979 132.326 143.305  0.00  0.00    -0.216 N 
ATOM      9  C           0     134.687 131.896 143.485  0.00  0.00     0.670 C 
ATOM     10  N           0     133.826 131.737 142.519  0.00  0.00    -0.235 N 
ATOM     11  H           0     134.085 131.926 141.603  0.00  0.00     0.174 HD
ATOM     12  H           0     132.929 131.429 142.715  0.00  0.00     0.174 HD
ATOM     13  C           0     135.683 131.667 145.553  0.00  0.00     0.217 C 
ATOM     14  N           0     134.414 131.654 144.808  0.00  0.00    -0.191 N 
ATOM     15  N           0     135.649 132.659 146.628  0.00  0.00    -0.183 N 
ATOM     16  C           0     134.911 132.015 147.730  0.00  0.00     0.150 C 
ATOM     17  C           0     135.384 130.542 147.698  0.00  0.00     0.093 C 
ATOM     18  C           0     135.893 130.313 146.253  0.00  0.00     0.209 C 
ATOM     19  H           0     137.167 135.082 145.216  0.00  0.00     0.178 HD
ATOM     20  H           0     136.323 132.800 142.531  0.00  0.00     0.178 HD
ATOM     21  H           0     133.534 131.498 145.187  0.00  0.00     0.180 HD
ENDROOT
BRANCH   6  22
ATOM     22  C           0     138.786 132.496 145.798  0.00  0.00     0.206 C 
BRANCH  22  23
ATOM     23  O           0     139.813 133.501 146.007  0.00  0.00    -0.320 OA
BRANCH  23  24
ATOM     24  C           0     139.997 134.030 147.226  0.00  0.00     0.254 C 
ATOM     25  C           0     140.220 133.129 148.413  0.00  0.00     0.126 C 
ATOM     26  O           0     139.981 135.229 147.373  0.00  0.00    -0.266 OA
ENDBRANCH  23  24
ENDBRANCH  22  23
ENDBRANCH   6  22
BRANCH  18  27
ATOM     27  O           0     135.129 129.291 145.611  0.00  0.00    -0.362 OA
ATOM     28  H           0     135.714 128.529 145.506  0.00  0.00     0.213 HD
ENDBRANCH  18  27
BRANCH  18  29
ATOM     29  O           0     137.280 129.969 146.262  0.00  0.00    -0.362 OA
ATOM     30  H           0     137.666 130.345 145.459  0.00  0.00     0.213 HD
ENDBRANCH  18  29
TORSDOF 5
ENDMDL
MODEL 6
REMARK VINA RESULT:      -6.7      2.890      5.133
REMARK  5 active torsions:
REMARK  status: ('A' for Active; 'I' for Inactive)
REMARK    1  A    between atoms: C_6  and  C_7 
REMARK    2  A    between atoms: C_7  and  O_8 
REMARK    3  A    between atoms: O_8  and  C_9 
REMARK    4  A    between atoms: C_23  and  O_24 
REMARK    5  A    between atoms: C_23  and  O_25 
ROOT
ATOM      1  N           0     139.623 130.530 146.201  0.00  0.00    -0.235 N 
ATOM      2  H           0     140.390 130.640 145.618  0.00  0.00     0.174 HD
ATOM      3  H           0     139.618 129.825 146.868  0.00  0.00     0.174 HD
ATOM      4  C           0     138.601 131.332 146.093  0.00  0.00     0.672 C 
ATOM      5  N           0     138.564 132.355 145.162  0.00  0.00    -0.218 N 
ATOM      6  C           0     137.263 132.785 144.659  0.00  0.00     0.151 C 
ATOM      7  C           0     136.277 133.089 145.771  0.00  0.00     0.180 C 
ATOM      8  N           0     136.602 134.405 146.361  0.00  0.00    -0.216 N 
ATOM      9  C           0     136.426 134.305 147.720  0.00  0.00     0.670 C 
ATOM     10  N           0     136.267 135.326 148.515  0.00  0.00    -0.235 N 
ATOM     11  H           0     136.267 136.227 148.154  0.00  0.00     0.174 HD
ATOM     12  H           0     136.147 135.186 149.466  0.00  0.00     0.174 HD
ATOM     13  C           0     136.355 132.132 146.950  0.00  0.00     0.217 C 
ATOM     14  N           0     136.440 132.998 148.137  0.00  0.00    -0.191 N 
ATOM     15  N           0     137.493 131.213 146.890  0.00  0.00    -0.183 N 
ATOM     16  C           0     137.158 130.118 147.817  0.00  0.00     0.150 C 
ATOM     17  C           0     135.640 129.896 147.618  0.00  0.00     0.093 C 
ATOM     18  C           0     135.109 131.234 147.045  0.00  0.00     0.209 C 
ATOM     19  H           0     139.382 132.776 144.852  0.00  0.00     0.178 HD
ATOM     20  H           0     136.887 135.197 145.877  0.00  0.00     0.178 HD
ATOM     21  H           0     136.493 132.696 149.058  0.00  0.00     0.180 HD
ENDROOT
BRANCH   6  22
ATOM     22  C           0     136.683 131.677 143.778  0.00  0.00     0.206 C 
BRANCH  22  23
ATOM     23  O           0     135.987 132.270 142.650  0.00  0.00    -0.320 OA
BRANCH  23  24
ATOM     24  C           0     134.671 132.062 142.489  0.00  0.00     0.254 C 
ATOM     25  C           0     133.797 133.158 141.936  0.00  0.00     0.126 C 
ATOM     26  O           0     134.186 130.997 142.788  0.00  0.00    -0.266 OA
ENDBRANCH  23  24
ENDBRANCH  22  23
ENDBRANCH   6  22
BRANCH  18  27
ATOM     27  O           0     134.143 131.807 147.927  0.00  0.00    -0.362 OA
ATOM     28  H           0     133.807 132.604 147.495  0.00  0.00     0.213 HD
ENDBRANCH  18  27
BRANCH  18  29
ATOM     29  O           0     134.544 131.032 145.748  0.00  0.00    -0.362 OA
ATOM     30  H           0     135.265 130.743 145.171  0.00  0.00     0.213 HD
ENDBRANCH  18  29
TORSDOF 5
ENDMDL
MODEL 7
REMARK VINA RESULT:      -6.6      2.940      5.616
REMARK  5 active torsions:
REMARK  status: ('A' for Active; 'I' for Inactive)
REMARK    1  A    between atoms: C_6  and  C_7 
REMARK    2  A    between atoms: C_7  and  O_8 
REMARK    3  A    between atoms: O_8  and  C_9 
REMARK    4  A    between atoms: C_23  and  O_24 
REMARK    5  A    between atoms: C_23  and  O_25 
ROOT
ATOM      1  N           0     134.000 131.620 148.465  0.00  0.00    -0.235 N 
ATOM      2  H           0     133.224 131.061 148.304  0.00  0.00     0.174 HD
ATOM      3  H           0     134.077 132.115 149.295  0.00  0.00     0.174 HD
ATOM      4  C           0     134.942 131.700 147.568  0.00  0.00     0.672 C 
ATOM      5  N           0     134.881 131.008 146.371  0.00  0.00    -0.218 N 
ATOM      6  C           0     135.563 131.573 145.210  0.00  0.00     0.151 C 
ATOM      7  C           0     137.006 131.938 145.499  0.00  0.00     0.180 C 
ATOM      8  N           0     137.825 130.707 145.513  0.00  0.00    -0.216 N 
ATOM      9  C           0     138.735 130.826 146.535  0.00  0.00     0.670 C 
ATOM     10  N           0     139.831 130.126 146.625  0.00  0.00    -0.235 N 
ATOM     11  H           0     140.045 129.470 145.942  0.00  0.00     0.174 HD
ATOM     12  H           0     140.433 130.260 147.373  0.00  0.00     0.174 HD
ATOM     13  C           0     137.231 132.541 146.877  0.00  0.00     0.217 C 
ATOM     14  N           0     138.350 131.774 147.450  0.00  0.00    -0.191 N 
ATOM     15  N           0     136.055 132.480 147.747  0.00  0.00    -0.183 N 
ATOM     16  C           0     136.304 133.472 148.808  0.00  0.00     0.150 C 
ATOM     17  C           0     136.988 134.652 148.077  0.00  0.00     0.093 C 
ATOM     18  C           0     137.604 134.031 146.798  0.00  0.00     0.209 C 
ATOM     19  H           0     134.398 130.169 146.306  0.00  0.00     0.178 HD
ATOM     20  H           0     137.736 129.952 144.910  0.00  0.00     0.178 HD
ATOM     21  H           0     138.748 131.916 148.322  0.00  0.00     0.180 HD
ENDROOT
BRANCH   6  22
ATOM     22  C           0     134.817 132.832 144.764  0.00  0.00     0.206 C 
BRANCH  22  23
ATOM     23  O           0     135.399 133.327 143.529  0.00  0.00    -0.320 OA
BRANCH  23  24
ATOM     24  C           0     134.751 134.253 142.806  0.00  0.00     0.254 C 
ATOM     25  C           0     134.750 135.693 143.250  0.00  0.00     0.126 C 
ATOM     26  O           0     134.167 133.932 141.797  0.00  0.00    -0.266 OA
ENDBRANCH  23  24
ENDBRANCH  22  23
ENDBRANCH   6  22
BRANCH  18  27
ATOM     27  O           0     139.023 134.195 146.798  0.00  0.00    -0.362 OA
ATOM     28  H           0     139.238 134.770 147.545  0.00  0.00     0.213 HD
ENDBRANCH  18  27
BRANCH  18  29
ATOM     29  O           0     137.032 134.625 145.631  0.00  0.00    -0.362 OA
ATOM     30  H           0     137.372 134.131 144.872  0.00  0.00     0.213 HD
ENDBRANCH  18  29
TORSDOF 5
ENDMDL
MODEL 8
REMARK VINA RESULT:      -6.5      2.907      4.318
REMARK  5 active torsions:
REMARK  status: ('A' for Active; 'I' for Inactive)
REMARK    1  A    between atoms: C_6  and  C_7 
REMARK    2  A    between atoms: C_7  and  O_8 
REMARK    3  A    between atoms: O_8  and  C_9 
REMARK    4  A    between atoms: C_23  and  O_24 
REMARK    5  A    between atoms: C_23  and  O_25 
ROOT
ATOM      1  N           0     140.879 132.589 145.146  0.00  0.00    -0.235 N 
ATOM      2  H           0     141.621 132.528 145.767  0.00  0.00     0.174 HD
ATOM      3  H           0     140.955 132.200 144.261  0.00  0.00     0.174 HD
ATOM      4  C           0     139.777 133.187 145.504  0.00  0.00     0.672 C 
ATOM      5  N           0     139.619 133.751 146.758  0.00  0.00    -0.218 N 
ATOM      6  C           0     138.710 134.885 146.896  0.00  0.00     0.151 C 
ATOM      7  C           0     137.342 134.615 146.297  0.00  0.00     0.180 C 
ATOM      8  N           0     136.572 133.749 147.214  0.00  0.00    -0.216 N 
ATOM      9  C           0     135.877 132.846 146.447  0.00  0.00     0.670 C 
ATOM     10  N           0     134.837 132.179 146.863  0.00  0.00    -0.235 N 
ATOM     11  H           0     134.508 132.307 147.768  0.00  0.00     0.174 HD
ATOM     12  H           0     134.391 131.557 146.270  0.00  0.00     0.174 HD
ATOM     13  C           0     137.378 133.826 144.996  0.00  0.00     0.217 C 
ATOM     14  N           0     136.412 132.733 145.188  0.00  0.00    -0.191 N 
ATOM     15  N           0     138.703 133.302 144.660  0.00  0.00    -0.183 N 
ATOM     16  C           0     138.644 132.988 143.222  0.00  0.00     0.150 C 
ATOM     17  C           0     137.802 134.134 142.613  0.00  0.00     0.093 C 
ATOM     18  C           0     136.962 134.687 143.791  0.00  0.00     0.209 C 
ATOM     19  H           0     140.099 133.401 147.525  0.00  0.00     0.178 HD
ATOM     20  H           0     136.559 133.808 148.183  0.00  0.00     0.178 HD
ATOM     21  H           0     136.189 132.051 144.536  0.00  0.00     0.180 HD
ENDROOT
BRANCH   6  22
ATOM     22  C           0     139.323 136.098 146.195  0.00  0.00     0.206 C 
BRANCH  22  23
ATOM     23  O           0     139.427 137.199 147.136  0.00  0.00    -0.320 OA
BRANCH  23  24
ATOM     24  C           0     139.785 138.418 146.705  0.00  0.00     0.254 C 
ATOM     25  C           0     139.069 139.640 147.220  0.00  0.00     0.126 C 
ATOM     26  O           0     140.681 138.537 145.903  0.00  0.00    -0.266 OA
ENDBRANCH  23  24
ENDBRANCH  22  23
ENDBRANCH   6  22
BRANCH  18  27
ATOM     27  O           0     135.567 134.536 143.524  0.00  0.00    -0.362 OA
ATOM     28  H           0     135.335 135.204 142.864  0.00  0.00     0.213 HD
ENDBRANCH  18  27
BRANCH  18  29
ATOM     29  O           0     137.280 136.060 144.028  0.00  0.00    -0.362 OA
ATOM     30  H           0     138.078 136.254 143.518  0.00  0.00     0.213 HD
ENDBRANCH  18  29
TORSDOF 5
ENDMDL
MODEL 9
REMARK VINA RESULT:      -6.3     10.485     11.999
REMARK  5 active torsions:
REMARK  status: ('A' for Active; 'I' for Inactive)
REMARK    1  A    between atoms: C_6  and  C_7 
REMARK    2  A    between atoms: C_7  and  O_8 
REMARK    3  A    between atoms: O_8  and  C_9 
REMARK    4  A    between atoms: C_23  and  O_24 
REMARK    5  A    between atoms: C_23  and  O_25 
ROOT
ATOM      1  N           0     129.055 132.826 132.335  0.00  0.00    -0.235 N 
ATOM      2  H           0     128.490 132.069 132.557  0.00  0.00     0.174 HD
ATOM      3  H           0     128.877 133.345 131.536  0.00  0.00     0.174 HD
ATOM      4  C           0     130.049 133.147 133.114  0.00  0.00     0.672 C 
ATOM      5  N           0     130.338 132.441 134.269  0.00  0.00    -0.218 N 
ATOM      6  C           0     131.722 132.414 134.734  0.00  0.00     0.151 C 
ATOM      7  C           0     132.333 133.798 134.833  0.00  0.00     0.180 C 
ATOM      8  N           0     131.826 134.468 136.049  0.00  0.00    -0.216 N 
ATOM      9  C           0     131.598 135.785 135.733  0.00  0.00     0.670 C 
ATOM     10  N           0     131.500 136.743 136.613  0.00  0.00    -0.235 N 
ATOM     11  H           0     131.589 136.544 137.559  0.00  0.00     0.174 HD
ATOM     12  H           0     131.339 137.653 136.322  0.00  0.00     0.174 HD
ATOM     13  C           0     131.931 134.737 133.706  0.00  0.00     0.217 C 
ATOM     14  N           0     131.487 135.969 134.378  0.00  0.00    -0.191 N 
ATOM     15  N           0     130.878 134.204 132.840  0.00  0.00    -0.183 N 
ATOM     16  C           0     130.946 135.004 131.605  0.00  0.00     0.150 C 
ATOM     17  C           0     132.460 135.224 131.373  0.00  0.00     0.093 C 
ATOM     18  C           0     133.111 135.048 132.769  0.00  0.00     0.209 C 
ATOM     19  H           0     129.639 131.977 134.757  0.00  0.00     0.178 HD
ATOM     20  H           0     131.681 134.052 136.914  0.00  0.00     0.178 HD
ATOM     21  H           0     131.173 136.774 133.938  0.00  0.00     0.180 HD
ENDROOT
BRANCH   6  22
ATOM     22  C           0     132.554 131.577 133.761  0.00  0.00     0.206 C 
BRANCH  22  23
ATOM     23  O           0     133.948 131.609 134.163  0.00  0.00    -0.320 OA
BRANCH  23  24
ATOM     24  C           0     134.775 130.616 133.802  0.00  0.00     0.254 C 
ATOM     25  C           0     135.862 130.870 132.791  0.00  0.00     0.126 C 
ATOM     26  O           0     134.646 129.516 134.288  0.00  0.00    -0.266 OA
ENDBRANCH  23  24
ENDBRANCH  22  23
ENDBRANCH   6  22
BRANCH  18  27
ATOM     27  O           0     133.766 136.253 133.168  0.00  0.00    -0.362 OA
ATOM     28  H           0     133.444 136.953 132.585  0.00  0.00     0.213 HD
ENDBRANCH  18  27
BRANCH  18  29
ATOM     29  O           0     134.034 133.958 132.754  0.00  0.00    -0.362 OA
ATOM     30  H           0     134.046 133.614 131.850  0.00  0.00     0.213 HD
ENDBRANCH  18  29
TORSDOF 5
ENDMDL
