MODEL 1
REMARK VINA RESULT:      -7.9      0.000      0.000
REMARK  7 active torsions:
REMARK  status: ('A' for Active; 'I' for Inactive)
REMARK    1  A    between atoms: C_6  and  O_7 
REMARK    2  A    between atoms: C_10  and  O_11 
REMARK    3  A    between atoms: C_15  and  O_16 
REMARK    4  A    between atoms: C_18  and  O_19 
REMARK    5  A    between atoms: C_18  and  C_20 
REMARK    6  A    between atoms: C_20  and  O_21 
REMARK    7  A    between atoms: C_23  and  O_24 
ROOT
ATOM      1  N           0     134.394 136.165 142.208  0.00  0.00    -0.235 N 
ATOM      2  H           0     133.670 135.911 141.614  0.00  0.00     0.174 HD
ATOM      3  H           0     134.811 137.036 142.121  0.00  0.00     0.174 HD
ATOM      4  C           0     134.803 135.335 143.127  0.00  0.00     0.670 C 
ATOM      5  N           0     134.229 134.084 143.286  0.00  0.00    -0.200 N 
ATOM      6  C           0     135.125 132.943 143.540  0.00  0.00     0.244 C 
ATOM      7  C           0     136.083 133.324 144.672  0.00  0.00     0.101 C 
ATOM      8  C           0     136.815 134.615 144.286  0.00  0.00     0.119 C 
ATOM      9  C           0     137.662 134.322 143.039  0.00  0.00     0.243 C 
ATOM     10  N           0     135.841 135.660 143.993  0.00  0.00    -0.211 N 
ATOM     11  C           0     137.109 132.215 144.899  0.00  0.00     0.177 C 
ATOM     12  O           0     137.911 132.015 143.740  0.00  0.00    -0.322 OA
ATOM     13  C           0     138.629 133.197 143.423  0.00  0.00     0.311 C 
ATOM     14  O           0     139.500 133.630 144.452  0.00  0.00    -0.319 OA
ATOM     15  C           0     138.021 132.622 146.066  0.00  0.00     0.134 C 
ATOM     16  C           0     138.767 133.901 145.643  0.00  0.00     0.198 C 
ATOM     17  C           0     137.759 135.022 145.418  0.00  0.00     0.182 C 
ATOM     18  H           0     133.268 133.964 143.234  0.00  0.00     0.180 HD
ATOM     19  H           0     135.909 136.542 144.389  0.00  0.00     0.178 HD
ENDROOT
BRANCH  15  20
ATOM     20  O           0     137.232 132.887 147.227  0.00  0.00    -0.382 OA
ATOM     21  H           0     137.381 133.813 147.461  0.00  0.00     0.210 HD
ENDBRANCH  15  20
BRANCH  15  22
ATOM     22  C           0     139.018 131.499 146.360  0.00  0.00     0.207 C 
BRANCH  22  23
ATOM     23  O           0     138.383 130.235 146.163  0.00  0.00    -0.398 OA
ATOM     24  H           0     137.596 130.227 146.726  0.00  0.00     0.209 HD
ENDBRANCH  22  23
ENDBRANCH  15  22
BRANCH  17  25
ATOM     25  O           0     138.447 136.221 145.060  0.00  0.00    -0.390 OA
ATOM     26  H           0     137.844 136.733 144.503  0.00  0.00     0.210 HD
ENDBRANCH  17  25
BRANCH   6  27
ATOM     27  O           0     134.354 131.802 143.925  0.00  0.00    -0.376 OA
ATOM     28  H           0     134.753 131.035 143.488  0.00  0.00     0.212 HD
ENDBRANCH   6  27
BRANCH  13  29
ATOM     29  O           0     139.442 132.916 142.282  0.00  0.00    -0.341 OA
ATOM     30  H           0     139.434 133.710 141.731  0.00  0.00     0.215 HD
ENDBRANCH  13  29
BRANCH   9  31
ATOM     31  O           0     136.820 133.903 141.963  0.00  0.00    -0.385 OA
ATOM     32  H           0     136.871 132.938 141.927  0.00  0.00     0.210 HD
ENDBRANCH   9  31
TORSDOF 7
ENDMDL
MODEL 2
REMARK VINA RESULT:      -7.9      1.527      1.793
REMARK  7 active torsions:
REMARK  status: ('A' for Active; 'I' for Inactive)
REMARK    1  A    between atoms: C_6  and  O_7 
REMARK    2  A    between atoms: C_10  and  O_11 
REMARK    3  A    between atoms: C_15  and  O_16 
REMARK    4  A    between atoms: C_18  and  O_19 
REMARK    5  A    between atoms: C_18  and  C_20 
REMARK    6  A    between atoms: C_20  and  O_21 
REMARK    7  A    between atoms: C_23  and  O_24 
ROOT
ATOM      1  N           0     133.418 134.770 140.242  0.00  0.00    -0.235 N 
ATOM      2  H           0     132.948 134.262 139.562  0.00  0.00     0.174 HD
ATOM      3  H           0     133.685 135.686 140.065  0.00  0.00     0.174 HD
ATOM      4  C           0     133.685 134.224 141.395  0.00  0.00     0.670 C 
ATOM      5  N           0     133.314 132.921 141.686  0.00  0.00    -0.200 N 
ATOM      6  C           0     134.284 132.072 142.400  0.00  0.00     0.244 C 
ATOM      7  C           0     134.799 132.848 143.616  0.00  0.00     0.101 C 
ATOM      8  C           0     135.377 134.187 143.141  0.00  0.00     0.119 C 
ATOM      9  C           0     136.580 133.886 142.236  0.00  0.00     0.243 C 
ATOM     10  N           0     134.361 134.917 142.392  0.00  0.00    -0.211 N 
ATOM     11  C           0     135.894 132.055 144.329  0.00  0.00     0.177 C 
ATOM     12  O           0     137.014 131.849 143.477  0.00  0.00    -0.322 OA
ATOM     13  C           0     137.577 133.091 143.087  0.00  0.00     0.311 C 
ATOM     14  O           0     138.031 133.879 144.173  0.00  0.00    -0.319 OA
ATOM     15  C           0     136.351 132.851 145.561  0.00  0.00     0.134 C 
ATOM     16  C           0     136.954 134.175 145.057  0.00  0.00     0.198 C 
ATOM     17  C           0     135.874 134.983 144.347  0.00  0.00     0.182 C 
ATOM     18  H           0     132.444 132.579 141.429  0.00  0.00     0.180 HD
ATOM     19  H           0     134.160 135.846 142.583  0.00  0.00     0.178 HD
ENDROOT
BRANCH  15  20
ATOM     20  O           0     135.231 133.123 146.405  0.00  0.00    -0.382 OA
ATOM     21  H           0     135.173 132.395 147.038  0.00  0.00     0.210 HD
ENDBRANCH  15  20
BRANCH  15  22
ATOM     22  C           0     137.401 132.051 146.334  0.00  0.00     0.207 C 
BRANCH  22  23
ATOM     23  O           0     137.361 130.685 145.917  0.00  0.00    -0.398 OA
ATOM     24  H           0     136.452 130.504 145.640  0.00  0.00     0.209 HD
ENDBRANCH  22  23
ENDBRANCH  15  22
BRANCH  17  25
ATOM     25  O           0     136.417 136.228 143.907  0.00  0.00    -0.390 OA
ATOM     26  H           0     135.955 136.923 144.397  0.00  0.00     0.210 HD
ENDBRANCH  17  25
BRANCH   6  27
ATOM     27  O           0     133.645 130.869 142.832  0.00  0.00    -0.376 OA
ATOM     28  H           0     132.781 131.123 143.187  0.00  0.00     0.212 HD
ENDBRANCH   6  27
BRANCH  13  29
ATOM     29  O           0     138.718 132.814 142.272  0.00  0.00    -0.341 OA
ATOM     30  H           0     138.484 133.065 141.369  0.00  0.00     0.215 HD
ENDBRANCH  13  29
BRANCH   9  31
ATOM     31  O           0     136.165 133.110 141.110  0.00  0.00    -0.385 OA
ATOM     32  H           0     136.665 132.283 141.141  0.00  0.00     0.210 HD
ENDBRANCH   9  31
TORSDOF 7
ENDMDL
MODEL 3
REMARK VINA RESULT:      -7.5      1.565      1.843
REMARK  7 active torsions:
REMARK  status: ('A' for Active; 'I' for Inactive)
REMARK    1  A    between atoms: C_6  and  O_7 
REMARK    2  A    between atoms: C_10  and  O_11 
REMARK    3  A    between atoms: C_15  and  O_16 
REMARK    4  A    between atoms: C_18  and  O_19 
REMARK    5  A    between atoms: C_18  and  C_20 
REMARK    6  A    between atoms: C_20  and  O_21 
REMARK    7  A    between atoms: C_23  and  O_24 
ROOT
ATOM      1  N           0     134.766 136.669 142.685  0.00  0.00    -0.235 N 
ATOM      2  H           0     134.421 136.782 141.785  0.00  0.00     0.174 HD
ATOM      3  H           0     135.197 137.412 143.136  0.00  0.00     0.174 HD
ATOM      4  C           0     134.647 135.520 143.289  0.00  0.00     0.670 C 
ATOM      5  N           0     134.033 134.437 142.679  0.00  0.00    -0.200 N 
ATOM      6  C           0     134.656 133.112 142.841  0.00  0.00     0.244 C 
ATOM      7  C           0     134.943 132.893 144.329  0.00  0.00     0.101 C 
ATOM      8  C           0     135.808 134.052 144.841  0.00  0.00     0.119 C 
ATOM      9  C           0     137.149 134.006 144.096  0.00  0.00     0.243 C 
ATOM     10  N           0     135.133 135.317 144.575  0.00  0.00    -0.211 N 
ATOM     11  C           0     135.694 131.579 144.539  0.00  0.00     0.177 C 
ATOM     12  O           0     136.956 131.598 143.881  0.00  0.00    -0.322 OA
ATOM     13  C           0     137.770 132.638 144.400  0.00  0.00     0.311 C 
ATOM     14  O           0     138.035 132.519 145.786  0.00  0.00    -0.319 OA
ATOM     15  C           0     135.925 131.382 146.044  0.00  0.00     0.134 C 
ATOM     16  C           0     136.819 132.539 146.528  0.00  0.00     0.198 C 
ATOM     17  C           0     136.084 133.860 146.332  0.00  0.00     0.182 C 
ATOM     18  H           0     133.220 134.548 142.164  0.00  0.00     0.180 HD
ATOM     19  H           0     135.023 135.988 145.266  0.00  0.00     0.178 HD
ENDROOT
BRANCH  15  20
ATOM     20  O           0     134.675 131.418 146.735  0.00  0.00    -0.382 OA
ATOM     21  H           0     133.999 131.639 146.080  0.00  0.00     0.210 HD
ENDBRANCH  15  20
BRANCH  15  22
ATOM     22  C           0     136.616 130.039 146.291  0.00  0.00     0.207 C 
BRANCH  22  23
ATOM     23  O           0     135.639 128.997 146.308  0.00  0.00    -0.398 OA
ATOM     24  H           0     134.832 129.366 145.924  0.00  0.00     0.209 HD
ENDBRANCH  22  23
ENDBRANCH  15  22
BRANCH  17  25
ATOM     25  O           0     136.893 134.935 146.812  0.00  0.00    -0.390 OA
ATOM     26  H           0     136.291 135.656 147.041  0.00  0.00     0.210 HD
ENDBRANCH  17  25
BRANCH   6  27
ATOM     27  O           0     133.763 132.100 142.369  0.00  0.00    -0.376 OA
ATOM     28  H           0     132.924 132.229 142.833  0.00  0.00     0.212 HD
ENDBRANCH   6  27
BRANCH  13  29
ATOM     29  O           0     139.031 132.575 143.731  0.00  0.00    -0.341 OA
ATOM     30  H           0     139.600 132.002 144.261  0.00  0.00     0.215 HD
ENDBRANCH  13  29
BRANCH   9  31
ATOM     31  O           0     136.933 134.146 142.690  0.00  0.00    -0.385 OA
ATOM     32  H           0     137.194 135.047 142.455  0.00  0.00     0.210 HD
ENDBRANCH   9  31
TORSDOF 7
ENDMDL
MODEL 4
REMARK VINA RESULT:      -7.4      1.913      3.776
REMARK  7 active torsions:
REMARK  status: ('A' for Active; 'I' for Inactive)
REMARK    1  A    between atoms: C_6  and  O_7 
REMARK    2  A    between atoms: C_10  and  O_11 
REMARK    3  A    between atoms: C_15  and  O_16 
REMARK    4  A    between atoms: C_18  and  O_19 
REMARK    5  A    between atoms: C_18  and  C_20 
REMARK    6  A    between atoms: C_20  and  O_21 
REMARK    7  A    between atoms: C_23  and  O_24 
ROOT
ATOM      1  N           0     134.962 132.465 141.857  0.00  0.00    -0.235 N 
ATOM      2  H           0     134.644 133.083 141.179  0.00  0.00     0.174 HD
ATOM      3  H           0     134.434 131.685 142.089  0.00  0.00     0.174 HD
ATOM      4  C           0     136.101 132.681 142.453  0.00  0.00     0.670 C 
ATOM      5  N           0     136.886 133.782 142.145  0.00  0.00    -0.200 N 
ATOM      6  C           0     137.523 134.505 143.259  0.00  0.00     0.244 C 
ATOM      7  C           0     138.227 133.484 144.157  0.00  0.00     0.101 C 
ATOM      8  C           0     137.205 132.432 144.605  0.00  0.00     0.119 C 
ATOM      9  C           0     136.138 133.140 145.452  0.00  0.00     0.243 C 
ATOM     10  N           0     136.587 131.823 143.432  0.00  0.00    -0.211 N 
ATOM     11  C           0     138.810 134.172 145.391  0.00  0.00     0.177 C 
ATOM     12  O           0     137.784 134.765 146.179  0.00  0.00    -0.322 OA
ATOM     13  C           0     136.874 133.777 146.636  0.00  0.00     0.311 C 
ATOM     14  O           0     137.474 132.774 147.436  0.00  0.00    -0.319 OA
ATOM     15  C           0     139.538 133.120 146.240  0.00  0.00     0.134 C 
ATOM     16  C           0     138.487 132.093 146.702  0.00  0.00     0.198 C 
ATOM     17  C           0     137.898 131.391 145.484  0.00  0.00     0.182 C 
ATOM     18  H           0     137.012 134.065 141.227  0.00  0.00     0.180 HD
ATOM     19  H           0     136.521 130.861 143.335  0.00  0.00     0.178 HD
ENDROOT
BRANCH  15  20
ATOM     20  O           0     140.535 132.466 145.453  0.00  0.00    -0.382 OA
ATOM     21  H           0     140.109 131.702 145.040  0.00  0.00     0.210 HD
ENDBRANCH  15  20
BRANCH  15  22
ATOM     22  C           0     140.190 133.791 147.451  0.00  0.00     0.207 C 
BRANCH  22  23
ATOM     23  O           0     140.263 135.201 147.230  0.00  0.00    -0.398 OA
ATOM     24  H           0     139.905 135.626 148.021  0.00  0.00     0.209 HD
ENDBRANCH  22  23
ENDBRANCH  15  22
BRANCH  17  25
ATOM     25  O           0     136.948 130.412 145.907  0.00  0.00    -0.390 OA
ATOM     26  H           0     136.612 129.986 145.106  0.00  0.00     0.210 HD
ENDBRANCH  17  25
BRANCH   6  27
ATOM     27  O           0     138.480 135.434 142.745  0.00  0.00    -0.376 OA
ATOM     28  H           0     139.292 134.934 142.576  0.00  0.00     0.212 HD
ENDBRANCH   6  27
BRANCH  13  29
ATOM     29  O           0     135.899 134.430 147.452  0.00  0.00    -0.341 OA
ATOM     30  H           0     135.272 133.751 147.734  0.00  0.00     0.215 HD
ENDBRANCH  13  29
BRANCH   9  31
ATOM     31  O           0     135.488 134.149 144.676  0.00  0.00    -0.385 OA
ATOM     32  H           0     135.299 133.760 143.812  0.00  0.00     0.210 HD
ENDBRANCH   9  31
TORSDOF 7
ENDMDL
MODEL 5
REMARK VINA RESULT:      -7.4      1.584      1.957
REMARK  7 active torsions:
REMARK  status: ('A' for Active; 'I' for Inactive)
REMARK    1  A    between atoms: C_6  and  O_7 
REMARK    2  A    between atoms: C_10  and  O_11 
REMARK    3  A    between atoms: C_15  and  O_16 
REMARK    4  A    between atoms: C_18  and  O_19 
REMARK    5  A    between atoms: C_18  and  C_20 
REMARK    6  A    between atoms: C_20  and  O_21 
REMARK    7  A    between atoms: C_23  and  O_24 
ROOT
ATOM      1  N           0     135.457 133.328 140.629  0.00  0.00    -0.235 N 
ATOM      2  H           0     135.179 132.574 140.086  0.00  0.00     0.174 HD
ATOM      3  H           0     135.658 134.180 140.211  0.00  0.00     0.174 HD
ATOM      4  C           0     135.557 133.199 141.922  0.00  0.00     0.670 C 
ATOM      5  N           0     135.273 132.000 142.558  0.00  0.00    -0.200 N 
ATOM      6  C           0     136.172 131.565 143.641  0.00  0.00     0.244 C 
ATOM      7  C           0     136.366 132.738 144.607  0.00  0.00     0.101 C 
ATOM      8  C           0     136.883 133.947 143.818  0.00  0.00     0.119 C 
ATOM      9  C           0     138.260 133.583 143.245  0.00  0.00     0.243 C 
ATOM     10  N           0     135.957 134.254 142.733  0.00  0.00    -0.211 N 
ATOM     11  C           0     137.381 132.375 145.689  0.00  0.00     0.177 C 
ATOM     12  O           0     138.658 132.102 145.122  0.00  0.00    -0.322 OA
ATOM     13  C           0     139.154 133.243 144.443  0.00  0.00     0.311 C 
ATOM     14  O           0     139.312 134.380 145.273  0.00  0.00    -0.319 OA
ATOM     15  C           0     137.513 133.562 146.654  0.00  0.00     0.134 C 
ATOM     16  C           0     138.063 134.753 145.847  0.00  0.00     0.198 C 
ATOM     17  C           0     137.059 135.134 144.765  0.00  0.00     0.182 C 
ATOM     18  H           0     134.507 131.466 142.299  0.00  0.00     0.180 HD
ATOM     19  H           0     135.630 135.155 142.585  0.00  0.00     0.178 HD
ENDROOT
BRANCH  15  20
ATOM     20  O           0     136.232 133.895 147.192  0.00  0.00    -0.382 OA
ATOM     21  H           0     136.013 134.778 146.866  0.00  0.00     0.210 HD
ENDBRANCH  15  20
BRANCH  15  22
ATOM     22  C           0     138.475 133.202 147.789  0.00  0.00     0.207 C 
BRANCH  22  23
ATOM     23  O           0     139.257 134.348 148.130  0.00  0.00    -0.398 OA
ATOM     24  H           0     139.338 134.355 149.093  0.00  0.00     0.209 HD
ENDBRANCH  22  23
ENDBRANCH  15  22
BRANCH  17  25
ATOM     25  O           0     137.546 136.261 144.035  0.00  0.00    -0.390 OA
ATOM     26  H           0     138.262 135.940 143.470  0.00  0.00     0.210 HD
ENDBRANCH  17  25
BRANCH   6  27
ATOM     27  O           0     135.589 130.460 144.336  0.00  0.00    -0.376 OA
ATOM     28  H           0     135.568 129.719 143.714  0.00  0.00     0.212 HD
ENDBRANCH   6  27
BRANCH  13  29
ATOM     29  O           0     140.450 132.917 143.937  0.00  0.00    -0.341 OA
ATOM     30  H           0     140.907 132.429 144.635  0.00  0.00     0.215 HD
ENDBRANCH  13  29
BRANCH   9  31
ATOM     31  O           0     138.146 132.452 142.379  0.00  0.00    -0.385 OA
ATOM     32  H           0     138.295 131.667 142.923  0.00  0.00     0.210 HD
ENDBRANCH   9  31
TORSDOF 7
ENDMDL
MODEL 6
REMARK VINA RESULT:      -7.2      2.671      4.550
REMARK  7 active torsions:
REMARK  status: ('A' for Active; 'I' for Inactive)
REMARK    1  A    between atoms: C_6  and  O_7 
REMARK    2  A    between atoms: C_10  and  O_11 
REMARK    3  A    between atoms: C_15  and  O_16 
REMARK    4  A    between atoms: C_18  and  O_19 
REMARK    5  A    between atoms: C_18  and  C_20 
REMARK    6  A    between atoms: C_20  and  O_21 
REMARK    7  A    between atoms: C_23  and  O_24 
ROOT
ATOM      1  N           0     135.170 128.764 147.191  0.00  0.00    -0.235 N 
ATOM      2  H           0     134.269 128.412 147.124  0.00  0.00     0.174 HD
ATOM      3  H           0     135.741 128.501 147.930  0.00  0.00     0.174 HD
ATOM      4  C           0     135.616 129.589 146.285  0.00  0.00     0.670 C 
ATOM      5  N           0     134.833 129.985 145.213  0.00  0.00    -0.200 N 
ATOM      6  C           0     134.874 131.404 144.817  0.00  0.00     0.244 C 
ATOM      7  C           0     136.340 131.827 144.692  0.00  0.00     0.101 C 
ATOM      8  C           0     137.055 131.531 146.017  0.00  0.00     0.119 C 
ATOM      9  C           0     136.410 132.400 147.105  0.00  0.00     0.243 C 
ATOM     10  N           0     136.900 130.120 146.349  0.00  0.00    -0.211 N 
ATOM     11  C           0     136.439 133.323 144.394  0.00  0.00     0.177 C 
ATOM     12  O           0     135.884 134.094 145.453  0.00  0.00    -0.322 OA
ATOM     13  C           0     136.586 133.857 146.662  0.00  0.00     0.311 C 
ATOM     14  O           0     137.962 134.185 146.598  0.00  0.00    -0.319 OA
ATOM     15  C           0     137.921 133.694 144.238  0.00  0.00     0.134 C 
ATOM     16  C           0     138.610 133.417 145.588  0.00  0.00     0.198 C 
ATOM     17  C           0     138.526 131.927 145.900  0.00  0.00     0.182 C 
ATOM     18  H           0     134.277 129.349 144.737  0.00  0.00     0.180 HD
ATOM     19  H           0     137.659 129.571 146.600  0.00  0.00     0.178 HD
ENDROOT
BRANCH  15  20
ATOM     20  O           0     138.518 132.889 143.220  0.00  0.00    -0.382 OA
ATOM     21  H           0     138.504 131.976 143.540  0.00  0.00     0.210 HD
ENDBRANCH  15  20
BRANCH  15  22
ATOM     22  C           0     138.050 135.174 143.872  0.00  0.00     0.207 C 
BRANCH  22  23
ATOM     23  O           0     136.782 135.667 143.435  0.00  0.00    -0.398 OA
ATOM     24  H           0     136.112 135.248 143.992  0.00  0.00     0.209 HD
ENDBRANCH  22  23
ENDBRANCH  15  22
BRANCH  17  25
ATOM     25  O           0     139.194 131.657 147.134  0.00  0.00    -0.390 OA
ATOM     26  H           0     140.014 132.171 147.125  0.00  0.00     0.210 HD
ENDBRANCH  17  25
BRANCH   6  27
ATOM     27  O           0     134.215 131.572 143.559  0.00  0.00    -0.376 OA
ATOM     28  H           0     133.895 130.698 143.293  0.00  0.00     0.212 HD
ENDBRANCH   6  27
BRANCH  13  29
ATOM     29  O           0     136.009 134.690 147.669  0.00  0.00    -0.341 OA
ATOM     30  H           0     135.590 135.431 147.212  0.00  0.00     0.215 HD
ENDBRANCH  13  29
BRANCH   9  31
ATOM     31  O           0     135.020 132.087 147.223  0.00  0.00    -0.385 OA
ATOM     32  H           0     134.734 132.407 148.089  0.00  0.00     0.210 HD
ENDBRANCH   9  31
TORSDOF 7
ENDMDL
MODEL 7
REMARK VINA RESULT:      -7.2      2.116      4.000
REMARK  7 active torsions:
REMARK  status: ('A' for Active; 'I' for Inactive)
REMARK    1  A    between atoms: C_6  and  O_7 
REMARK    2  A    between atoms: C_10  and  O_11 
REMARK    3  A    between atoms: C_15  and  O_16 
REMARK    4  A    between atoms: C_18  and  O_19 
REMARK    5  A    between atoms: C_18  and  C_20 
REMARK    6  A    between atoms: C_20  and  O_21 
REMARK    7  A    between atoms: C_23  and  O_24 
ROOT
ATOM      1  N           0     139.765 136.212 146.237  0.00  0.00    -0.235 N 
ATOM      2  H           0     140.507 136.602 145.748  0.00  0.00     0.174 HD
ATOM      3  H           0     139.742 136.260 147.205  0.00  0.00     0.174 HD
ATOM      4  C           0     138.795 135.628 145.590  0.00  0.00     0.670 C 
ATOM      5  N           0     138.789 135.544 144.207  0.00  0.00    -0.200 N 
ATOM      6  C           0     138.368 134.271 143.596  0.00  0.00     0.244 C 
ATOM      7  C           0     137.047 133.841 144.241  0.00  0.00     0.101 C 
ATOM      8  C           0     137.239 133.767 145.761  0.00  0.00     0.119 C 
ATOM      9  C           0     138.277 132.674 146.053  0.00  0.00     0.243 C 
ATOM     10  N           0     137.718 135.053 146.254  0.00  0.00    -0.211 N 
ATOM     11  C           0     136.624 132.467 143.723  0.00  0.00     0.177 C 
ATOM     12  O           0     137.584 131.473 144.065  0.00  0.00    -0.322 OA
ATOM     13  C           0     137.714 131.372 145.473  0.00  0.00     0.311 C 
ATOM     14  O           0     136.512 131.022 146.135  0.00  0.00    -0.319 OA
ATOM     15  C           0     135.279 132.095 144.363  0.00  0.00     0.134 C 
ATOM     16  C           0     135.504 131.997 145.884  0.00  0.00     0.198 C 
ATOM     17  C           0     135.922 133.361 146.420  0.00  0.00     0.182 C 
ATOM     18  H           0     139.052 136.299 143.659  0.00  0.00     0.180 HD
ATOM     19  H           0     137.300 135.493 147.011  0.00  0.00     0.178 HD
ENDROOT
BRANCH  15  20
ATOM     20  O           0     134.313 133.109 144.085  0.00  0.00    -0.382 OA
ATOM     21  H           0     134.071 133.018 143.153  0.00  0.00     0.210 HD
ENDBRANCH  15  20
BRANCH  15  22
ATOM     22  C           0     134.796 130.752 143.812  0.00  0.00     0.207 C 
BRANCH  22  23
ATOM     23  O           0     133.817 130.979 142.797  0.00  0.00    -0.398 OA
ATOM     24  H           0     133.180 130.254 142.856  0.00  0.00     0.209 HD
ENDBRANCH  22  23
ENDBRANCH  15  22
BRANCH  17  25
ATOM     25  O           0     136.098 133.287 147.836  0.00  0.00    -0.390 OA
ATOM     26  H           0     136.993 132.953 147.989  0.00  0.00     0.210 HD
ENDBRANCH  17  25
BRANCH   6  27
ATOM     27  O           0     138.183 134.449 142.190  0.00  0.00    -0.376 OA
ATOM     28  H           0     137.690 135.275 142.076  0.00  0.00     0.212 HD
ENDBRANCH   6  27
BRANCH  13  29
ATOM     29  O           0     138.655 130.332 145.748  0.00  0.00    -0.341 OA
ATOM     30  H           0     138.150 129.578 146.079  0.00  0.00     0.215 HD
ENDBRANCH  13  29
BRANCH   9  31
ATOM     31  O           0     139.519 132.997 145.422  0.00  0.00    -0.385 OA
ATOM     32  H           0     140.138 132.289 145.644  0.00  0.00     0.210 HD
ENDBRANCH   9  31
TORSDOF 7
ENDMDL
MODEL 8
REMARK VINA RESULT:      -7.2      2.756      4.789
REMARK  7 active torsions:
REMARK  status: ('A' for Active; 'I' for Inactive)
REMARK    1  A    between atoms: C_6  and  O_7 
REMARK    2  A    between atoms: C_10  and  O_11 
REMARK    3  A    between atoms: C_15  and  O_16 
REMARK    4  A    between atoms: C_18  and  O_19 
REMARK    5  A    between atoms: C_18  and  C_20 
REMARK    6  A    between atoms: C_20  and  O_21 
REMARK    7  A    between atoms: C_23  and  O_24 
ROOT
ATOM      1  N           0     134.365 130.662 149.253  0.00  0.00    -0.235 N 
ATOM      2  H           0     134.596 130.698 150.195  0.00  0.00     0.174 HD
ATOM      3  H           0     133.880 129.900 148.901  0.00  0.00     0.174 HD
ATOM      4  C           0     134.703 131.641 148.462  0.00  0.00     0.670 C 
ATOM      5  N           0     135.392 132.749 148.929  0.00  0.00    -0.200 N 
ATOM      6  C           0     136.487 133.280 148.098  0.00  0.00     0.244 C 
ATOM      7  C           0     135.971 133.440 146.665  0.00  0.00     0.101 C 
ATOM      8  C           0     135.423 132.090 146.184  0.00  0.00     0.119 C 
ATOM      9  C           0     136.588 131.092 146.150  0.00  0.00     0.243 C 
ATOM     10  N           0     134.394 131.624 147.107  0.00  0.00    -0.211 N 
ATOM     11  C           0     137.102 133.880 145.737  0.00  0.00     0.177 C 
ATOM     12  O           0     138.135 132.902 145.688  0.00  0.00    -0.322 OA
ATOM     13  C           0     137.632 131.673 145.189  0.00  0.00     0.311 C 
ATOM     14  O           0     137.095 131.765 143.882  0.00  0.00    -0.319 OA
ATOM     15  C           0     136.532 134.066 144.324  0.00  0.00     0.134 C 
ATOM     16  C           0     136.016 132.693 143.850  0.00  0.00     0.198 C 
ATOM     17  C           0     134.882 132.240 144.762  0.00  0.00     0.182 C 
ATOM     18  H           0     135.160 133.163 149.774  0.00  0.00     0.180 HD
ATOM     19  H           0     133.530 131.320 146.791  0.00  0.00     0.178 HD
ENDROOT
BRANCH  15  20
ATOM     20  O           0     135.451 135.000 144.356  0.00  0.00    -0.382 OA
ATOM     21  H           0     135.269 135.185 145.287  0.00  0.00     0.210 HD
ENDBRANCH  15  20
BRANCH  15  22
ATOM     22  C           0     137.628 134.572 143.384  0.00  0.00     0.207 C 
BRANCH  22  23
ATOM     23  O           0     137.520 133.906 142.125  0.00  0.00    -0.398 OA
ATOM     24  H           0     136.689 133.412 142.141  0.00  0.00     0.209 HD
ENDBRANCH  22  23
ENDBRANCH  15  22
BRANCH  17  25
ATOM     25  O           0     134.375 130.984 144.308  0.00  0.00    -0.390 OA
ATOM     26  H           0     133.433 131.112 144.127  0.00  0.00     0.210 HD
ENDBRANCH  17  25
BRANCH   6  27
ATOM     27  O           0     136.904 134.550 148.604  0.00  0.00    -0.376 OA
ATOM     28  H           0     136.363 135.218 148.161  0.00  0.00     0.212 HD
ENDBRANCH   6  27
BRANCH  13  29
ATOM     29  O           0     138.723 130.753 145.125  0.00  0.00    -0.341 OA
ATOM     30  H           0     139.335 130.995 145.833  0.00  0.00     0.215 HD
ENDBRANCH  13  29
BRANCH   9  31
ATOM     31  O           0     137.149 130.949 147.457  0.00  0.00    -0.385 OA
ATOM     32  H           0     137.164 131.831 147.853  0.00  0.00     0.210 HD
ENDBRANCH   9  31
TORSDOF 7
ENDMDL
MODEL 9
REMARK VINA RESULT:      -7.1      2.541      4.809
REMARK  7 active torsions:
REMARK  status: ('A' for Active; 'I' for Inactive)
REMARK    1  A    between atoms: C_6  and  O_7 
REMARK    2  A    between atoms: C_10  and  O_11 
REMARK    3  A    between atoms: C_15  and  O_16 
REMARK    4  A    between atoms: C_18  and  O_19 
REMARK    5  A    between atoms: C_18  and  C_20 
REMARK    6  A    between atoms: C_20  and  O_21 
REMARK    7  A    between atoms: C_23  and  O_24 
ROOT
ATOM      1  N           0     140.153 132.705 148.425  0.00  0.00    -0.235 N 
ATOM      2  H           0     141.039 132.309 148.430  0.00  0.00     0.174 HD
ATOM      3  H           0     139.640 132.759 149.246  0.00  0.00     0.174 HD
ATOM      4  C           0     139.652 133.166 147.313  0.00  0.00     0.670 C 
ATOM      5  N           0     140.355 133.111 146.120  0.00  0.00    -0.200 N 
ATOM      6  C           0     139.617 132.731 144.903  0.00  0.00     0.244 C 
ATOM      7  C           0     138.346 133.581 144.825  0.00  0.00     0.101 C 
ATOM      8  C           0     137.546 133.395 146.120  0.00  0.00     0.119 C 
ATOM      9  C           0     137.117 131.924 146.203  0.00  0.00     0.243 C 
ATOM     10  N           0     138.384 133.735 147.264  0.00  0.00    -0.211 N 
ATOM     11  C           0     137.486 133.147 143.639  0.00  0.00     0.177 C 
ATOM     12  O           0     137.061 131.796 143.782  0.00  0.00    -0.322 OA
ATOM     13  C           0     136.275 131.644 144.953  0.00  0.00     0.311 C 
ATOM     14  O           0     135.105 132.442 144.963  0.00  0.00    -0.319 OA
ATOM     15  C           0     136.245 134.050 143.576  0.00  0.00     0.134 C 
ATOM     16  C           0     135.444 133.823 144.872  0.00  0.00     0.198 C 
ATOM     17  C           0     136.285 134.257 146.067  0.00  0.00     0.182 C 
ATOM     18  H           0     141.302 133.317 146.087  0.00  0.00     0.180 HD
ATOM     19  H           0     138.075 134.335 147.959  0.00  0.00     0.178 HD
ENDROOT
BRANCH  15  20
ATOM     20  O           0     136.646 135.419 143.493  0.00  0.00    -0.382 OA
ATOM     21  H           0     136.183 135.890 144.198  0.00  0.00     0.210 HD
ENDBRANCH  15  20
BRANCH  15  22
ATOM     22  C           0     135.397 133.682 142.357  0.00  0.00     0.207 C 
BRANCH  22  23
ATOM     23  O           0     136.234 133.108 141.351  0.00  0.00    -0.398 OA
ATOM     24  H           0     135.995 132.173 141.288  0.00  0.00     0.209 HD
ENDBRANCH  22  23
ENDBRANCH  15  22
BRANCH  17  25
ATOM     25  O           0     135.534 134.082 147.270  0.00  0.00    -0.390 OA
ATOM     26  H           0     134.948 133.326 147.125  0.00  0.00     0.210 HD
ENDBRANCH  17  25
BRANCH   6  27
ATOM     27  O           0     140.429 132.972 143.752  0.00  0.00    -0.376 OA
ATOM     28  H           0     140.189 132.302 143.095  0.00  0.00     0.212 HD
ENDBRANCH   6  27
BRANCH  13  29
ATOM     29  O           0     135.846 130.282 145.014  0.00  0.00    -0.341 OA
ATOM     30  H           0     135.015 130.273 145.507  0.00  0.00     0.215 HD
ENDBRANCH  13  29
BRANCH   9  31
ATOM     31  O           0     138.269 131.078 146.218  0.00  0.00    -0.385 OA
ATOM     32  H           0     139.040 131.656 146.292  0.00  0.00     0.210 HD
ENDBRANCH   9  31
TORSDOF 7
ENDMDL
