# created with PyMOL 2.3.4
@<TRIPOS>MOLECULE
ligand_out_0001
32 35 1                 
SMALL
USER_CHARGES
@<TRIPOS>ATOM
1	   N	134.394	136.165	142.208	N.3	1	UNK0	-0.235	
2	   N	134.229	134.084	143.286	N.pl3	1	UNK0	-0.200	
3	   N	135.841	135.660	143.993	N.3	1	UNK0	-0.211	
4	   C	134.803	135.335	143.127	C.3	1	UNK0	0.670	
5	   C	135.125	132.943	143.540	C.2	1	UNK0	0.244	
6	   C	136.083	133.324	144.672	C.3	1	UNK0	0.101	
7	   C	136.815	134.615	144.286	C.3	1	UNK0	0.119	
8	   C	137.662	134.322	143.039	C.2	1	UNK0	0.243	
9	   C	137.109	132.215	144.899	C.2	1	UNK0	0.177	
10	   C	138.629	133.197	143.423	C.3	1	UNK0	0.311	
11	   C	138.021	132.622	146.066	C.3	1	UNK0	0.134	
12	   C	138.767	133.901	145.643	C.2	1	UNK0	0.198	
13	   C	137.759	135.022	145.418	C.2	1	UNK0	0.182	
14	   C	139.018	131.499	146.360	C.2	1	UNK0	0.207	
15	   O	137.911	132.015	143.740	O.2	1	UNK0	-0.322	
16	   O	139.500	133.630	144.452	O.2	1	UNK0	-0.319	
17	   O	137.232	132.887	147.227	O.2	1	UNK0	-0.382	
18	   O	138.383	130.235	146.163	O.2	1	UNK0	-0.398	
19	   O	138.447	136.221	145.060	O.2	1	UNK0	-0.390	
20	   O	134.354	131.802	143.925	O.2	1	UNK0	-0.376	
21	   O	139.442	132.916	142.282	O.2	1	UNK0	-0.341	
22	   O	136.820	133.903	141.963	O.2	1	UNK0	-0.385	
23	   H	133.670	135.911	141.614	 H	1	UNK0	0.174	
24	   H	134.811	137.036	142.121	 H	1	UNK0	0.174	
25	   H	133.268	133.964	143.234	 H	1	UNK0	0.180	
26	   H	135.909	136.542	144.389	 H	1	UNK0	0.178	
27	   H	137.381	133.813	147.461	 H	1	UNK0	0.210	
28	   H	137.596	130.227	146.726	 H	1	UNK0	0.209	
29	   H	137.844	136.733	144.503	 H	1	UNK0	0.210	
30	   H	134.753	131.035	143.488	 H	1	UNK0	0.212	
31	   H	139.434	133.710	141.731	 H	1	UNK0	0.215	
32	   H	136.871	132.938	141.927	 H	1	UNK0	0.210	
@<TRIPOS>BOND
1 1 4 1
2 1 23 1
3 1 24 1
4 2 5 1
5 2 25 1
6 3 26 1
7 2 4 1
8 3 4 1
9 5 6 1
10 5 20 2
11 6 7 1
12 6 9 1
13 3 7 1
14 7 8 1
15 7 13 1
16 8 10 1
17 8 22 2
18 9 11 1
19 9 15 2
20 10 16 2
21 10 21 2
22 11 12 1
23 11 14 1
24 11 17 2
25 12 13 1
26 13 19 2
27 14 18 2
28 10 15 2
29 12 16 2
30 17 27 1
31 18 28 1
32 19 29 1
33 20 30 1
34 21 31 1
35 22 32 1
@<TRIPOS>SUBSTRUCTURE
1	UNK0	1	GROUP	1 ****	UNK
