# created with PyMOL 2.3.4
@<TRIPOS>MOLECULE
ligand_out_0001
33 35 1                 
SMALL
USER_CHARGES
@<TRIPOS>ATOM
1	   N	135.522	136.710	143.290	N.3	1	UNK0	-0.235	
2	   N	134.021	134.901	143.261	N.3	1	UNK0	-0.218	
3	   N	134.078	132.271	144.874	N.3	1	UNK0	-0.216	
4	   N	134.889	131.652	147.009	N.3	1	UNK0	-0.235	
5	   N	136.200	132.849	145.445	N.3	1	UNK0	-0.191	
6	   N	136.283	134.535	143.707	N.3	1	UNK0	-0.179	
7	   N	133.569	136.032	139.960	N.pl3	1	UNK0	-0.346	
8	   C	135.288	135.435	143.416	C.3	1	UNK0	0.672	
9	   C	133.901	133.524	142.787	C.3	1	UNK0	0.151	
10	   C	134.751	132.557	143.588	C.3	1	UNK0	0.180	
11	   C	135.047	132.223	145.847	C.3	1	UNK0	0.670	
12	   C	136.104	133.112	144.001	C.3	1	UNK0	0.217	
13	   C	137.732	134.786	143.725	C.3	1	UNK0	0.106	
14	   C	138.159	135.287	145.106	C.3	1	UNK0	0.033	
15	   C	138.421	133.441	143.415	C.3	1	UNK0	0.098	
16	   C	137.263	132.417	143.259	C.3	1	UNK0	0.210	
17	   C	134.338	133.467	141.322	C.2	1	UNK0	0.208	
18	   C	133.307	134.773	139.559	C.2	1	UNK0	0.358	
19	   O	133.208	133.784	140.467	O.2	1	UNK0	-0.302	
20	   O	133.160	134.529	138.377	O.co2	1	UNK0	-0.239	
21	   O	137.598	131.173	143.877	O.2	1	UNK0	-0.362	
22	   O	136.936	132.227	141.881	O.2	1	UNK0	-0.362	
23	   H	134.796	137.319	143.081	 H	1	UNK0	0.174	
24	   H	136.421	137.053	143.410	 H	1	UNK0	0.174	
25	   H	134.046	131.226	147.230	 H	1	UNK0	0.174	
26	   H	135.615	131.654	147.652	 H	1	UNK0	0.174	
27	   H	133.232	135.427	143.463	 H	1	UNK0	0.178	
28	   H	133.126	132.140	145.006	 H	1	UNK0	0.178	
29	   H	136.951	133.076	146.015	 H	1	UNK0	0.180	
30	   H	133.685	136.226	140.903	 H	1	UNK0	0.161	
31	   H	133.640	136.745	139.305	 H	1	UNK0	0.161	
32	   H	138.474	130.927	143.551	 H	1	UNK0	0.213	
33	   H	136.545	131.346	141.805	 H	1	UNK0	0.213	
@<TRIPOS>BOND
1 1 8 1
2 1 23 1
3 1 24 1
4 2 9 1
5 2 27 1
6 3 11 1
7 3 28 1
8 4 25 1
9 4 26 1
10 5 29 1
11 6 13 1
12 7 30 1
13 7 31 1
14 2 8 1
15 6 8 1
16 9 10 1
17 9 17 1
18 3 10 1
19 10 12 1
20 4 11 1
21 5 11 1
22 5 12 1
23 6 12 1
24 12 16 1
25 13 14 1
26 13 15 1
27 15 16 1
28 16 21 2
29 16 22 2
30 17 19 2
31 7 18 1
32 18 20 2
33 18 19 2
34 21 32 1
35 22 33 1
@<TRIPOS>SUBSTRUCTURE
1	UNK0	1	GROUP	1 ****	UNK
