MODEL 1
REMARK VINA RESULT:      -7.8      0.000      0.000
REMARK  4 active torsions:
REMARK  status: ('A' for Active; 'I' for Inactive)
REMARK    1  A    between atoms: C_6  and  C_7 
REMARK    2  A    between atoms: C_7  and  O_8 
REMARK    3  A    between atoms: C_20  and  O_21 
REMARK    4  A    between atoms: C_20  and  O_22 
ROOT
ATOM      1  N           0     135.524 132.684 147.101  0.00  0.00    -0.235 N 
ATOM      2  H           0     135.808 132.948 147.990  0.00  0.00     0.174 HD
ATOM      3  H           0     134.932 131.924 146.986  0.00  0.00     0.174 HD
ATOM      4  C           0     135.936 133.352 146.060  0.00  0.00     0.672 C 
ATOM      5  N           0     136.777 134.446 146.172  0.00  0.00    -0.218 N 
ATOM      6  C           0     137.671 134.749 145.058  0.00  0.00     0.150 C 
ATOM      7  C           0     136.946 134.814 143.729  0.00  0.00     0.180 C 
ATOM      8  N           0     136.220 136.099 143.633  0.00  0.00    -0.216 N 
ATOM      9  C           0     135.008 135.847 143.038  0.00  0.00     0.670 C 
ATOM     10  N           0     134.268 136.758 142.471  0.00  0.00    -0.235 N 
ATOM     11  H           0     134.565 137.681 142.449  0.00  0.00     0.174 HD
ATOM     12  H           0     133.421 136.512 142.067  0.00  0.00     0.174 HD
ATOM     13  C           0     135.857 133.766 143.562  0.00  0.00     0.217 C 
ATOM     14  N           0     134.672 134.519 143.117  0.00  0.00    -0.191 N 
ATOM     15  N           0     135.569 133.014 144.784  0.00  0.00    -0.183 N 
ATOM     16  C           0     134.861 131.800 144.337  0.00  0.00     0.150 C 
ATOM     17  C           0     135.574 131.402 143.023  0.00  0.00     0.093 C 
ATOM     18  C           0     136.231 132.710 142.510  0.00  0.00     0.209 C 
ATOM     19  H           0     136.771 134.997 146.971  0.00  0.00     0.178 HD
ATOM     20  H           0     136.541 136.962 143.935  0.00  0.00     0.178 HD
ATOM     21  H           0     133.804 134.140 142.910  0.00  0.00     0.180 HD
ENDROOT
BRANCH  18  22
ATOM     22  O           0     135.703 133.064 141.230  0.00  0.00    -0.362 OA
ATOM     23  H           0     134.977 133.684 141.389  0.00  0.00     0.213 HD
ENDBRANCH  18  22
BRANCH  18  24
ATOM     24  O           0     137.650 132.559 142.440  0.00  0.00    -0.362 OA
ATOM     25  H           0     137.848 131.647 142.697  0.00  0.00     0.213 HD
ENDBRANCH  18  24
BRANCH   6  26
ATOM     26  C           0     138.746 133.664 144.979  0.00  0.00     0.192 C 
BRANCH  26  27
ATOM     27  O           0     139.749 133.914 145.967  0.00  0.00    -0.399 OA
ATOM     28  H           0     140.562 133.499 145.651  0.00  0.00     0.209 HD
ENDBRANCH  26  27
ENDBRANCH   6  26
TORSDOF 4
ENDMDL
MODEL 2
REMARK VINA RESULT:      -7.4      1.786      2.413
REMARK  4 active torsions:
REMARK  status: ('A' for Active; 'I' for Inactive)
REMARK    1  A    between atoms: C_6  and  C_7 
REMARK    2  A    between atoms: C_7  and  O_8 
REMARK    3  A    between atoms: C_20  and  O_21 
REMARK    4  A    between atoms: C_20  and  O_22 
ROOT
ATOM      1  N           0     135.936 134.702 146.906  0.00  0.00    -0.235 N 
ATOM      2  H           0     136.255 135.598 147.099  0.00  0.00     0.174 HD
ATOM      3  H           0     135.623 134.133 147.626  0.00  0.00     0.174 HD
ATOM      4  C           0     135.925 134.266 145.678  0.00  0.00     0.672 C 
ATOM      5  N           0     136.356 135.042 144.615  0.00  0.00    -0.218 N 
ATOM      6  C           0     136.903 134.367 143.442  0.00  0.00     0.150 C 
ATOM      7  C           0     135.992 133.274 142.920  0.00  0.00     0.180 C 
ATOM      8  N           0     134.872 133.888 142.175  0.00  0.00    -0.216 N 
ATOM      9  C           0     133.735 133.179 142.477  0.00  0.00     0.670 C 
ATOM     10  N           0     132.651 133.192 141.754  0.00  0.00    -0.235 N 
ATOM     11  H           0     132.613 133.726 140.945  0.00  0.00     0.174 HD
ATOM     12  H           0     131.881 132.667 142.024  0.00  0.00     0.174 HD
ATOM     13  C           0     135.306 132.463 144.008  0.00  0.00     0.217 C 
ATOM     14  N           0     133.882 132.456 143.635  0.00  0.00    -0.191 N 
ATOM     15  N           0     135.490 133.007 145.355  0.00  0.00    -0.183 N 
ATOM     16  C           0     135.167 131.898 146.271  0.00  0.00     0.150 C 
ATOM     17  C           0     135.748 130.644 145.575  0.00  0.00     0.093 C 
ATOM     18  C           0     135.837 131.022 144.074  0.00  0.00     0.209 C 
ATOM     19  H           0     136.296 136.010 144.651  0.00  0.00     0.178 HD
ATOM     20  H           0     134.930 134.652 141.582  0.00  0.00     0.178 HD
ATOM     21  H           0     133.169 132.013 144.121  0.00  0.00     0.180 HD
ENDROOT
BRANCH  18  22
ATOM     22  O           0     135.020 130.148 143.292  0.00  0.00    -0.362 OA
ATOM     23  H           0     134.176 130.064 143.757  0.00  0.00     0.213 HD
ENDBRANCH  18  22
BRANCH  18  24
ATOM     24  O           0     137.192 130.971 143.626  0.00  0.00    -0.362 OA
ATOM     25  H           0     137.283 131.640 142.933  0.00  0.00     0.213 HD
ENDBRANCH  18  24
BRANCH   6  26
ATOM     26  C           0     138.252 133.748 143.812  0.00  0.00     0.192 C 
BRANCH  26  27
ATOM     27  O           0     138.761 133.010 142.699  0.00  0.00    -0.399 OA
ATOM     28  H           0     139.456 133.549 142.300  0.00  0.00     0.209 HD
ENDBRANCH  26  27
ENDBRANCH   6  26
TORSDOF 4
ENDMDL
MODEL 3
REMARK VINA RESULT:      -7.2      1.416      4.382
REMARK  4 active torsions:
REMARK  status: ('A' for Active; 'I' for Inactive)
REMARK    1  A    between atoms: C_6  and  C_7 
REMARK    2  A    between atoms: C_7  and  O_8 
REMARK    3  A    between atoms: C_20  and  O_21 
REMARK    4  A    between atoms: C_20  and  O_22 
ROOT
ATOM      1  N           0     135.032 136.666 143.149  0.00  0.00    -0.235 N 
ATOM      2  H           0     134.249 137.098 142.775  0.00  0.00     0.174 HD
ATOM      3  H           0     135.795 137.198 143.426  0.00  0.00     0.174 HD
ATOM      4  C           0     135.060 135.370 143.282  0.00  0.00     0.672 C 
ATOM      5  N           0     133.996 134.567 142.907  0.00  0.00    -0.218 N 
ATOM      6  C           0     134.276 133.196 142.491  0.00  0.00     0.150 C 
ATOM      7  C           0     135.135 132.447 143.490  0.00  0.00     0.180 C 
ATOM      8  N           0     134.300 132.039 144.639  0.00  0.00    -0.216 N 
ATOM      9  C           0     135.049 132.209 145.778  0.00  0.00     0.670 C 
ATOM     10  N           0     134.791 131.631 146.917  0.00  0.00    -0.235 N 
ATOM     11  H           0     134.029 131.036 146.998  0.00  0.00     0.174 HD
ATOM     12  H           0     135.362 131.794 147.684  0.00  0.00     0.174 HD
ATOM     13  C           0     136.236 133.287 144.119  0.00  0.00     0.217 C 
ATOM     14  N           0     136.101 133.065 145.568  0.00  0.00    -0.191 N 
ATOM     15  N           0     136.146 134.712 143.798  0.00  0.00    -0.183 N 
ATOM     16  C           0     137.482 135.263 144.093  0.00  0.00     0.150 C 
ATOM     17  C           0     138.462 134.160 143.628  0.00  0.00     0.093 C 
ATOM     18  C           0     137.633 132.849 143.649  0.00  0.00     0.209 C 
ATOM     19  H           0     133.088 134.909 142.920  0.00  0.00     0.178 HD
ATOM     20  H           0     133.388 131.711 144.598  0.00  0.00     0.178 HD
ATOM     21  H           0     136.663 133.452 146.256  0.00  0.00     0.180 HD
ENDROOT
BRANCH  18  22
ATOM     22  O           0     138.202 131.914 144.567  0.00  0.00    -0.362 OA
ATOM     23  H           0     137.726 131.080 144.448  0.00  0.00     0.213 HD
ENDBRANCH  18  22
BRANCH  18  24
ATOM     24  O           0     137.562 132.284 142.339  0.00  0.00    -0.362 OA
ATOM     25  H           0     138.111 131.487 142.348  0.00  0.00     0.213 HD
ENDBRANCH  18  24
BRANCH   6  26
ATOM     26  C           0     135.002 133.227 141.144  0.00  0.00     0.192 C 
BRANCH  26  27
ATOM     27  O           0     134.212 133.944 140.193  0.00  0.00    -0.399 OA
ATOM     28  H           0     133.351 134.099 140.604  0.00  0.00     0.209 HD
ENDBRANCH  26  27
ENDBRANCH   6  26
TORSDOF 4
ENDMDL
MODEL 4
REMARK VINA RESULT:      -7.2      1.278      1.384
REMARK  4 active torsions:
REMARK  status: ('A' for Active; 'I' for Inactive)
REMARK    1  A    between atoms: C_6  and  C_7 
REMARK    2  A    between atoms: C_7  and  O_8 
REMARK    3  A    between atoms: C_20  and  O_21 
REMARK    4  A    between atoms: C_20  and  O_22 
ROOT
ATOM      1  N           0     136.800 133.638 148.080  0.00  0.00    -0.235 N 
ATOM      2  H           0     137.387 134.100 148.698  0.00  0.00     0.174 HD
ATOM      3  H           0     136.112 133.043 148.416  0.00  0.00     0.174 HD
ATOM      4  C           0     136.933 133.819 146.796  0.00  0.00     0.672 C 
ATOM      5  N           0     137.895 134.662 146.266  0.00  0.00    -0.218 N 
ATOM      6  C           0     138.410 134.371 144.931  0.00  0.00     0.150 C 
ATOM      7  C           0     137.308 134.173 143.910  0.00  0.00     0.180 C 
ATOM      8  N           0     136.758 135.490 143.526  0.00  0.00    -0.216 N 
ATOM      9  C           0     135.398 135.352 143.403  0.00  0.00     0.670 C 
ATOM     10  N           0     134.634 136.178 142.744  0.00  0.00    -0.235 N 
ATOM     11  H           0     135.022 136.948 142.300  0.00  0.00     0.174 HD
ATOM     12  H           0     133.678 136.021 142.695  0.00  0.00     0.174 HD
ATOM     13  C           0     136.101 133.413 144.437  0.00  0.00     0.217 C 
ATOM     14  N           0     134.941 134.237 144.061  0.00  0.00    -0.191 N 
ATOM     15  N           0     136.132 133.184 145.882  0.00  0.00    -0.183 N 
ATOM     16  C           0     135.171 132.093 146.125  0.00  0.00     0.150 C 
ATOM     17  C           0     135.364 131.137 144.924  0.00  0.00     0.093 C 
ATOM     18  C           0     135.979 132.017 143.804  0.00  0.00     0.209 C 
ATOM     19  H           0     138.218 135.425 146.770  0.00  0.00     0.178 HD
ATOM     20  H           0     137.266 136.304 143.386  0.00  0.00     0.178 HD
ATOM     21  H           0     134.012 134.027 144.243  0.00  0.00     0.180 HD
ENDROOT
BRANCH  18  22
ATOM     22  O           0     135.113 132.054 142.668  0.00  0.00    -0.362 OA
ATOM     23  H           0     134.979 131.137 142.389  0.00  0.00     0.213 HD
ENDBRANCH  18  22
BRANCH  18  24
ATOM     24  O           0     137.268 131.524 143.435  0.00  0.00    -0.362 OA
ATOM     25  H           0     137.385 131.726 142.496  0.00  0.00     0.213 HD
ENDBRANCH  18  24
BRANCH   6  26
ATOM     26  C           0     139.257 133.099 144.995  0.00  0.00     0.192 C 
BRANCH  26  27
ATOM     27  O           0     139.988 132.950 143.776  0.00  0.00    -0.399 OA
ATOM     28  H           0     140.433 133.792 143.612  0.00  0.00     0.209 HD
ENDBRANCH  26  27
ENDBRANCH   6  26
TORSDOF 4
ENDMDL
MODEL 5
REMARK VINA RESULT:      -6.8      2.519      4.417
REMARK  4 active torsions:
REMARK  status: ('A' for Active; 'I' for Inactive)
REMARK    1  A    between atoms: C_6  and  C_7 
REMARK    2  A    between atoms: C_7  and  O_8 
REMARK    3  A    between atoms: C_20  and  O_21 
REMARK    4  A    between atoms: C_20  and  O_22 
ROOT
ATOM      1  N           0     135.357 130.600 143.071  0.00  0.00    -0.235 N 
ATOM      2  H           0     135.188 130.459 142.126  0.00  0.00     0.174 HD
ATOM      3  H           0     134.966 130.002 143.728  0.00  0.00     0.174 HD
ATOM      4  C           0     136.112 131.589 143.458  0.00  0.00     0.672 C 
ATOM      5  N           0     136.696 132.465 142.560  0.00  0.00    -0.218 N 
ATOM      6  C           0     136.973 133.829 143.004  0.00  0.00     0.150 C 
ATOM      7  C           0     137.739 133.873 144.311  0.00  0.00     0.180 C 
ATOM      8  N           0     139.159 133.557 144.053  0.00  0.00    -0.216 N 
ATOM      9  C           0     139.602 132.766 145.085  0.00  0.00     0.670 C 
ATOM     10  N           0     140.858 132.594 145.388  0.00  0.00    -0.235 N 
ATOM     11  H           0     141.548 133.039 144.872  0.00  0.00     0.174 HD
ATOM     12  H           0     141.103 132.021 146.133  0.00  0.00     0.174 HD
ATOM     13  C           0     137.308 132.822 145.321  0.00  0.00     0.217 C 
ATOM     14  N           0     138.559 132.180 145.757  0.00  0.00    -0.191 N 
ATOM     15  N           0     136.373 131.833 144.781  0.00  0.00    -0.183 N 
ATOM     16  C           0     135.743 131.209 145.959  0.00  0.00     0.150 C 
ATOM     17  C           0     135.548 132.377 146.954  0.00  0.00     0.093 C 
ATOM     18  C           0     136.590 133.445 146.529  0.00  0.00     0.209 C 
ATOM     19  H           0     136.916 132.180 141.659  0.00  0.00     0.178 HD
ATOM     20  H           0     139.684 133.853 143.293  0.00  0.00     0.178 HD
ATOM     21  H           0     138.634 131.468 146.411  0.00  0.00     0.180 HD
ENDROOT
BRANCH  18  22
ATOM     22  O           0     137.514 133.690 147.592  0.00  0.00    -0.362 OA
ATOM     23  H           0     137.253 133.116 148.326  0.00  0.00     0.213 HD
ENDBRANCH  18  22
BRANCH  18  24
ATOM     24  O           0     135.935 134.656 146.148  0.00  0.00    -0.362 OA
ATOM     25  H           0     135.535 134.497 145.281  0.00  0.00     0.213 HD
ENDBRANCH  18  24
BRANCH   6  26
ATOM     26  C           0     135.646 134.568 143.185  0.00  0.00     0.192 C 
BRANCH  26  27
ATOM     27  O           0     135.900 135.952 143.432  0.00  0.00    -0.399 OA
ATOM     28  H           0     135.170 136.278 143.974  0.00  0.00     0.209 HD
ENDBRANCH  26  27
ENDBRANCH   6  26
TORSDOF 4
ENDMDL
MODEL 6
REMARK VINA RESULT:      -6.7      2.670      3.864
REMARK  4 active torsions:
REMARK  status: ('A' for Active; 'I' for Inactive)
REMARK    1  A    between atoms: C_6  and  C_7 
REMARK    2  A    between atoms: C_7  and  O_8 
REMARK    3  A    between atoms: C_20  and  O_21 
REMARK    4  A    between atoms: C_20  and  O_22 
ROOT
ATOM      1  N           0     138.681 130.465 145.797  0.00  0.00    -0.235 N 
ATOM      2  H           0     138.541 129.555 146.102  0.00  0.00     0.174 HD
ATOM      3  H           0     139.565 130.862 145.845  0.00  0.00     0.174 HD
ATOM      4  C           0     137.683 131.153 145.320  0.00  0.00     0.672 C 
ATOM      5  N           0     136.405 130.630 145.225  0.00  0.00    -0.218 N 
ATOM      6  C           0     135.273 131.550 145.295  0.00  0.00     0.150 C 
ATOM      7  C           0     135.406 132.713 144.333  0.00  0.00     0.180 C 
ATOM      8  N           0     135.082 132.253 142.966  0.00  0.00    -0.216 N 
ATOM      9  C           0     135.961 132.861 142.104  0.00  0.00     0.670 C 
ATOM     10  N           0     135.763 132.983 140.822  0.00  0.00    -0.235 N 
ATOM     11  H           0     134.952 132.634 140.420  0.00  0.00     0.174 HD
ATOM     12  H           0     136.426 133.425 140.269  0.00  0.00     0.174 HD
ATOM     13  C           0     136.819 133.260 144.208  0.00  0.00     0.217 C 
ATOM     14  N           0     137.075 133.322 142.760  0.00  0.00    -0.191 N 
ATOM     15  N           0     137.830 132.444 144.884  0.00  0.00    -0.183 N 
ATOM     16  C           0     139.001 133.326 145.042  0.00  0.00     0.150 C 
ATOM     17  C           0     138.396 134.710 145.380  0.00  0.00     0.093 C 
ATOM     18  C           0     136.949 134.663 144.823  0.00  0.00     0.209 C 
ATOM     19  H           0     136.266 129.676 145.115  0.00  0.00     0.178 HD
ATOM     20  H           0     134.376 131.634 142.722  0.00  0.00     0.178 HD
ATOM     21  H           0     137.890 133.638 142.340  0.00  0.00     0.180 HD
ENDROOT
BRANCH  18  22
ATOM     22  O           0     136.768 135.669 143.824  0.00  0.00    -0.362 OA
ATOM     23  H           0     136.085 135.344 143.221  0.00  0.00     0.213 HD
ENDBRANCH  18  22
BRANCH  18  24
ATOM     24  O           0     136.003 134.833 145.880  0.00  0.00    -0.362 OA
ATOM     25  H           0     135.267 134.232 145.696  0.00  0.00     0.213 HD
ENDBRANCH  18  24
BRANCH   6  26
ATOM     26  C           0     135.171 132.099 146.720  0.00  0.00     0.192 C 
BRANCH  26  27
ATOM     27  O           0     134.541 131.130 147.561  0.00  0.00    -0.399 OA
ATOM     28  H           0     133.611 131.097 147.301  0.00  0.00     0.209 HD
ENDBRANCH  26  27
ENDBRANCH   6  26
TORSDOF 4
ENDMDL
MODEL 7
REMARK VINA RESULT:      -6.7      2.659      3.461
REMARK  4 active torsions:
REMARK  status: ('A' for Active; 'I' for Inactive)
REMARK    1  A    between atoms: C_6  and  C_7 
REMARK    2  A    between atoms: C_7  and  O_8 
REMARK    3  A    between atoms: C_20  and  O_21 
REMARK    4  A    between atoms: C_20  and  O_22 
ROOT
ATOM      1  N           0     136.057 134.817 147.616  0.00  0.00    -0.235 N 
ATOM      2  H           0     136.431 135.709 147.553  0.00  0.00     0.174 HD
ATOM      3  H           0     135.524 134.566 148.386  0.00  0.00     0.174 HD
ATOM      4  C           0     136.269 133.954 146.662  0.00  0.00     0.672 C 
ATOM      5  N           0     137.019 134.264 145.540  0.00  0.00    -0.218 N 
ATOM      6  C           0     137.730 133.184 144.862  0.00  0.00     0.150 C 
ATOM      7  C           0     136.834 132.002 144.549  0.00  0.00     0.180 C 
ATOM      8  N           0     135.993 132.327 143.377  0.00  0.00    -0.216 N 
ATOM      9  C           0     134.740 131.816 143.612  0.00  0.00     0.670 C 
ATOM     10  N           0     133.855 131.590 142.681  0.00  0.00    -0.235 N 
ATOM     11  H           0     134.066 131.784 141.754  0.00  0.00     0.174 HD
ATOM     12  H           0     132.987 131.226 142.915  0.00  0.00     0.174 HD
ATOM     13  C           0     135.827 131.677 145.642  0.00  0.00     0.217 C 
ATOM     14  N           0     134.534 131.573 144.947  0.00  0.00    -0.191 N 
ATOM     15  N           0     135.769 132.679 146.707  0.00  0.00    -0.183 N 
ATOM     16  C           0     135.117 132.002 147.843  0.00  0.00     0.150 C 
ATOM     17  C           0     135.683 130.563 147.809  0.00  0.00     0.093 C 
ATOM     18  C           0     136.152 130.349 146.346  0.00  0.00     0.209 C 
ATOM     19  H           0     137.071 135.176 145.215  0.00  0.00     0.178 HD
ATOM     20  H           0     136.274 132.812 142.586  0.00  0.00     0.178 HD
ATOM     21  H           0     133.682 131.365 145.360  0.00  0.00     0.180 HD
ENDROOT
BRANCH  18  22
ATOM     22  O           0     135.431 129.272 145.744  0.00  0.00    -0.362 OA
ATOM     23  H           0     135.508 128.516 146.342  0.00  0.00     0.213 HD
ENDBRANCH  18  22
BRANCH  18  24
ATOM     24  O           0     137.557 130.095 146.305  0.00  0.00    -0.362 OA
ATOM     25  H           0     137.697 129.230 146.715  0.00  0.00     0.213 HD
ENDBRANCH  18  24
BRANCH   6  26
ATOM     26  C           0     138.876 132.709 145.757  0.00  0.00     0.192 C 
BRANCH  26  27
ATOM     27  O           0     140.123 132.932 145.094  0.00  0.00    -0.399 OA
ATOM     28  H           0     139.978 132.748 144.157  0.00  0.00     0.209 HD
ENDBRANCH  26  27
ENDBRANCH   6  26
TORSDOF 4
ENDMDL
MODEL 8
REMARK VINA RESULT:      -6.6      2.744      4.091
REMARK  4 active torsions:
REMARK  status: ('A' for Active; 'I' for Inactive)
REMARK    1  A    between atoms: C_6  and  C_7 
REMARK    2  A    between atoms: C_7  and  O_8 
REMARK    3  A    between atoms: C_20  and  O_21 
REMARK    4  A    between atoms: C_20  and  O_22 
ROOT
ATOM      1  N           0     139.095 130.443 145.981  0.00  0.00    -0.235 N 
ATOM      2  H           0     139.251 129.608 146.449  0.00  0.00     0.174 HD
ATOM      3  H           0     139.839 130.922 145.583  0.00  0.00     0.174 HD
ATOM      4  C           0     137.886 130.921 145.886  0.00  0.00     0.672 C 
ATOM      5  N           0     136.792 130.272 146.432  0.00  0.00    -0.218 N 
ATOM      6  C           0     135.647 131.078 146.847  0.00  0.00     0.150 C 
ATOM      7  C           0     135.172 132.021 145.760  0.00  0.00     0.180 C 
ATOM      8  N           0     134.405 131.257 144.754  0.00  0.00    -0.216 N 
ATOM      9  C           0     134.738 131.751 143.516  0.00  0.00     0.670 C 
ATOM     10  N           0     134.017 131.584 142.443  0.00  0.00    -0.235 N 
ATOM     11  H           0     133.186 131.085 142.489  0.00  0.00     0.174 HD
ATOM     12  H           0     134.310 131.960 141.598  0.00  0.00     0.174 HD
ATOM     13  C           0     136.294 132.659 144.956  0.00  0.00     0.217 C 
ATOM     14  N           0     135.924 132.441 143.549  0.00  0.00    -0.191 N 
ATOM     15  N           0     137.617 132.100 145.242  0.00  0.00    -0.183 N 
ATOM     16  C           0     138.579 133.101 144.745  0.00  0.00     0.150 C 
ATOM     17  C           0     137.934 134.462 145.099  0.00  0.00     0.093 C 
ATOM     18  C           0     136.418 134.166 145.237  0.00  0.00     0.209 C 
ATOM     19  H           0     136.788 129.308 146.537  0.00  0.00     0.178 HD
ATOM     20  H           0     133.780 130.539 144.934  0.00  0.00     0.178 HD
ATOM     21  H           0     136.429 132.737 142.776  0.00  0.00     0.180 HD
ENDROOT
BRANCH  18  22
ATOM     22  O           0     135.675 134.920 144.277  0.00  0.00    -0.362 OA
ATOM     23  H           0     134.991 135.398 144.766  0.00  0.00     0.213 HD
ENDBRANCH  18  22
BRANCH  18  24
ATOM     24  O           0     135.971 134.463 146.561  0.00  0.00    -0.362 OA
ATOM     25  H           0     135.036 134.702 146.493  0.00  0.00     0.213 HD
ENDBRANCH  18  24
BRANCH   6  26
ATOM     26  C           0     136.040 131.900 148.076  0.00  0.00     0.192 C 
BRANCH  26  27
ATOM     27  O           0     134.902 132.622 148.551  0.00  0.00    -0.399 OA
ATOM     28  H           0     134.917 133.485 148.115  0.00  0.00     0.209 HD
ENDBRANCH  26  27
ENDBRANCH   6  26
TORSDOF 4
ENDMDL
MODEL 9
REMARK VINA RESULT:      -6.5      1.411      4.387
REMARK  4 active torsions:
REMARK  status: ('A' for Active; 'I' for Inactive)
REMARK    1  A    between atoms: C_6  and  C_7 
REMARK    2  A    between atoms: C_7  and  O_8 
REMARK    3  A    between atoms: C_20  and  O_21 
REMARK    4  A    between atoms: C_20  and  O_22 
ROOT
ATOM      1  N           0     136.270 136.073 143.625  0.00  0.00    -0.235 N 
ATOM      2  H           0     135.665 136.557 143.042  0.00  0.00     0.174 HD
ATOM      3  H           0     137.067 136.509 143.966  0.00  0.00     0.174 HD
ATOM      4  C           0     136.011 134.839 143.953  0.00  0.00     0.672 C 
ATOM      5  N           0     134.886 134.175 143.497  0.00  0.00    -0.218 N 
ATOM      6  C           0     134.948 132.723 143.354  0.00  0.00     0.150 C 
ATOM      7  C           0     135.456 132.036 144.605  0.00  0.00     0.180 C 
ATOM      8  N           0     134.375 131.996 145.612  0.00  0.00    -0.216 N 
ATOM      9  C           0     134.941 132.242 146.839  0.00  0.00     0.670 C 
ATOM     10  N           0     134.384 131.937 147.977  0.00  0.00    -0.235 N 
ATOM     11  H           0     133.515 131.506 147.992  0.00  0.00     0.174 HD
ATOM     12  H           0     134.839 132.138 148.810  0.00  0.00     0.174 HD
ATOM     13  C           0     136.583 132.776 145.309  0.00  0.00     0.217 C 
ATOM     14  N           0     136.165 132.851 146.718  0.00  0.00    -0.191 N 
ATOM     15  N           0     136.840 134.112 144.768  0.00  0.00    -0.183 N 
ATOM     16  C           0     138.190 134.470 145.238  0.00  0.00     0.150 C 
ATOM     17  C           0     138.990 133.149 145.149  0.00  0.00     0.093 C 
ATOM     18  C           0     137.921 132.027 145.198  0.00  0.00     0.209 C 
ATOM     19  H           0     134.077 134.663 143.277  0.00  0.00     0.178 HD
ATOM     20  H           0     133.436 131.826 145.439  0.00  0.00     0.178 HD
ATOM     21  H           0     136.670 133.257 147.440  0.00  0.00     0.180 HD
ENDROOT
BRANCH  18  22
ATOM     22  O           0     138.127 131.193 146.341  0.00  0.00    -0.362 OA
ATOM     23  H           0     138.491 130.358 146.015  0.00  0.00     0.213 HD
ENDBRANCH  18  22
BRANCH  18  24
ATOM     24  O           0     137.958 131.250 144.000  0.00  0.00    -0.362 OA
ATOM     25  H           0     138.401 131.790 143.330  0.00  0.00     0.213 HD
ENDBRANCH  18  24
BRANCH   6  26
ATOM     26  C           0     135.880 132.381 142.191  0.00  0.00     0.192 C 
BRANCH  26  27
ATOM     27  O           0     135.500 133.134 141.037  0.00  0.00    -0.399 OA
ATOM     28  H           0     134.674 132.752 140.714  0.00  0.00     0.209 HD
ENDBRANCH  26  27
ENDBRANCH   6  26
TORSDOF 4
ENDMDL
