# created with PyMOL 2.3.4
@<TRIPOS>MOLECULE
ligand_out_0001
28 30 1                 
SMALL
USER_CHARGES
@<TRIPOS>ATOM
1	   N	135.524	132.684	147.101	N.3	1	UNK0	-0.235	
2	   N	136.777	134.446	146.172	N.3	1	UNK0	-0.218	
3	   N	136.220	136.099	143.633	N.3	1	UNK0	-0.216	
4	   N	134.268	136.758	142.471	N.3	1	UNK0	-0.235	
5	   N	134.672	134.519	143.117	N.3	1	UNK0	-0.191	
6	   N	135.569	133.014	144.784	N.3	1	UNK0	-0.183	
7	   C	135.936	133.352	146.060	C.3	1	UNK0	0.672	
8	   C	137.671	134.749	145.058	C.3	1	UNK0	0.150	
9	   C	136.946	134.814	143.729	C.3	1	UNK0	0.180	
10	   C	135.008	135.847	143.038	C.3	1	UNK0	0.670	
11	   C	135.857	133.766	143.562	C.3	1	UNK0	0.217	
12	   C	134.861	131.800	144.337	C.3	1	UNK0	0.150	
13	   C	135.574	131.402	143.023	C.3	1	UNK0	0.093	
14	   C	136.231	132.710	142.510	C.3	1	UNK0	0.209	
15	   C	138.746	133.664	144.979	C.2	1	UNK0	0.192	
16	   O	135.703	133.064	141.230	O.2	1	UNK0	-0.362	
17	   O	137.650	132.559	142.440	O.2	1	UNK0	-0.362	
18	   O	139.749	133.914	145.967	O.2	1	UNK0	-0.399	
19	   H	135.808	132.948	147.990	 H	1	UNK0	0.174	
20	   H	134.932	131.924	146.986	 H	1	UNK0	0.174	
21	   H	134.565	137.681	142.449	 H	1	UNK0	0.174	
22	   H	133.421	136.512	142.067	 H	1	UNK0	0.174	
23	   H	136.771	134.997	146.971	 H	1	UNK0	0.178	
24	   H	136.541	136.962	143.935	 H	1	UNK0	0.178	
25	   H	133.804	134.140	142.910	 H	1	UNK0	0.180	
26	   H	134.977	133.684	141.389	 H	1	UNK0	0.213	
27	   H	137.848	131.647	142.697	 H	1	UNK0	0.213	
28	   H	140.562	133.499	145.651	 H	1	UNK0	0.209	
@<TRIPOS>BOND
1 1 7 1
2 1 19 1
3 1 20 1
4 2 8 1
5 2 23 1
6 3 10 1
7 3 24 1
8 4 21 1
9 4 22 1
10 5 25 1
11 6 12 1
12 2 7 1
13 6 7 1
14 8 9 1
15 8 15 1
16 3 9 1
17 9 11 1
18 4 10 1
19 5 10 1
20 5 11 1
21 6 11 1
22 11 14 1
23 12 13 1
24 13 14 1
25 14 16 2
26 14 17 2
27 15 18 2
28 16 26 1
29 17 27 1
30 18 28 1
@<TRIPOS>SUBSTRUCTURE
1	UNK0	1	GROUP	1 ****	UNK
