# created with PyMOL 2.3.4
@<TRIPOS>MOLECULE
ligand_out_0001
32 34 1                 
SMALL
USER_CHARGES
@<TRIPOS>ATOM
1	   N	135.367	136.857	143.205	N.3	1	UNK0	-0.235	
2	   N	133.849	135.061	143.289	N.3	1	UNK0	-0.218	
3	   N	133.957	132.503	145.002	N.3	1	UNK0	-0.216	
4	   N	134.856	131.956	147.121	N.3	1	UNK0	-0.235	
5	   N	136.111	133.067	145.453	N.3	1	UNK0	-0.191	
6	   N	136.121	134.688	143.658	N.3	1	UNK0	-0.183	
7	   N	133.553	136.149	139.821	N.pl3	1	UNK0	-0.346	
8	   C	135.126	135.588	143.379	C.3	1	UNK0	0.672	
9	   C	133.703	133.669	142.873	C.3	1	UNK0	0.151	
10	   C	134.574	132.725	143.678	C.3	1	UNK0	0.180	
11	   C	134.968	132.477	145.932	C.3	1	UNK0	0.670	
12	   C	135.952	133.277	144.004	C.3	1	UNK0	0.217	
13	   C	137.578	134.909	143.617	C.3	1	UNK0	0.150	
14	   C	138.144	133.614	142.984	C.3	1	UNK0	0.093	
15	   C	137.064	132.533	143.244	C.3	1	UNK0	0.209	
16	   C	134.083	133.553	141.396	C.2	1	UNK0	0.208	
17	   C	133.208	134.872	139.560	C.2	1	UNK0	0.358	
18	   O	132.980	134.015	140.573	O.2	1	UNK0	-0.302	
19	   O	133.104	134.494	138.410	O.co2	1	UNK0	-0.239	
20	   O	137.601	131.477	144.043	O.2	1	UNK0	-0.362	
21	   O	136.564	132.021	142.008	O.2	1	UNK0	-0.362	
22	   H	134.639	137.467	143.005	 H	1	UNK0	0.174	
23	   H	136.274	137.193	143.279	 H	1	UNK0	0.174	
24	   H	134.017	131.553	147.397	 H	1	UNK0	0.174	
25	   H	135.611	131.970	147.729	 H	1	UNK0	0.174	
26	   H	133.072	135.602	143.497	 H	1	UNK0	0.178	
27	   H	133.009	132.396	145.183	 H	1	UNK0	0.178	
28	   H	136.891	133.303	145.979	 H	1	UNK0	0.180	
29	   H	133.636	136.451	140.740	 H	1	UNK0	0.161	
30	   H	133.716	136.767	139.091	 H	1	UNK0	0.161	
31	   H	137.928	130.803	143.431	 H	1	UNK0	0.213	
32	   H	137.058	132.461	141.302	 H	1	UNK0	0.213	
@<TRIPOS>BOND
1 1 8 1
2 1 22 1
3 1 23 1
4 2 9 1
5 2 26 1
6 3 11 1
7 3 27 1
8 4 24 1
9 4 25 1
10 5 28 1
11 6 13 1
12 7 29 1
13 7 30 1
14 2 8 1
15 6 8 1
16 9 10 1
17 9 16 1
18 3 10 1
19 10 12 1
20 4 11 1
21 5 11 1
22 5 12 1
23 6 12 1
24 12 15 1
25 13 14 1
26 14 15 1
27 15 20 2
28 15 21 2
29 16 18 2
30 7 17 1
31 17 19 2
32 17 18 2
33 20 31 1
34 21 32 1
@<TRIPOS>SUBSTRUCTURE
1	UNK0	1	GROUP	1 ****	UNK
