MODEL 1
REMARK VINA RESULT:      -8.1      0.000      0.000
REMARK  5 active torsions:
REMARK  status: ('A' for Active; 'I' for Inactive)
REMARK    1  A    between atoms: C_6  and  C_7 
REMARK    2  A    between atoms: C_7  and  O_8 
REMARK    3  A    between atoms: O_8  and  C_9 
REMARK       I    between atoms: C_9  and  N_10 
REMARK    4  A    between atoms: C_23  and  O_24 
REMARK    5  A    between atoms: C_23  and  O_25 
ROOT
ATOM      1  N           0     135.367 136.857 143.205  0.00  0.00    -0.235 N 
ATOM      2  H           0     134.639 137.467 143.005  0.00  0.00     0.174 HD
ATOM      3  H           0     136.274 137.193 143.279  0.00  0.00     0.174 HD
ATOM      4  C           0     135.126 135.588 143.379  0.00  0.00     0.672 C 
ATOM      5  N           0     133.849 135.061 143.289  0.00  0.00    -0.218 N 
ATOM      6  C           0     133.703 133.669 142.873  0.00  0.00     0.151 C 
ATOM      7  C           0     134.574 132.725 143.678  0.00  0.00     0.180 C 
ATOM      8  N           0     133.957 132.503 145.002  0.00  0.00    -0.216 N 
ATOM      9  C           0     134.968 132.477 145.932  0.00  0.00     0.670 C 
ATOM     10  N           0     134.856 131.956 147.121  0.00  0.00    -0.235 N 
ATOM     11  H           0     134.017 131.553 147.397  0.00  0.00     0.174 HD
ATOM     12  H           0     135.611 131.970 147.729  0.00  0.00     0.174 HD
ATOM     13  C           0     135.952 133.277 144.004  0.00  0.00     0.217 C 
ATOM     14  N           0     136.111 133.067 145.453  0.00  0.00    -0.191 N 
ATOM     15  N           0     136.121 134.688 143.658  0.00  0.00    -0.183 N 
ATOM     16  C           0     137.578 134.909 143.617  0.00  0.00     0.150 C 
ATOM     17  C           0     138.144 133.614 142.984  0.00  0.00     0.093 C 
ATOM     18  C           0     137.064 132.533 143.244  0.00  0.00     0.209 C 
ATOM     19  H           0     133.072 135.602 143.497  0.00  0.00     0.178 HD
ATOM     20  H           0     133.009 132.396 145.183  0.00  0.00     0.178 HD
ATOM     21  H           0     136.891 133.303 145.979  0.00  0.00     0.180 HD
ENDROOT
BRANCH   6  22
ATOM     22  C           0     134.083 133.553 141.396  0.00  0.00     0.208 C 
BRANCH  22  23
ATOM     23  O           0     132.980 134.015 140.573  0.00  0.00    -0.302 OA
BRANCH  23  24
ATOM     24  C           0     133.208 134.872 139.560  0.00  0.00     0.358 C 
ATOM     25  N           0     133.553 136.149 139.821  0.00  0.00    -0.346 N 
ATOM     26  H           0     133.636 136.451 140.740  0.00  0.00     0.161 HD
ATOM     27  H           0     133.716 136.767 139.091  0.00  0.00     0.161 HD
ATOM     28  O           0     133.104 134.494 138.410  0.00  0.00    -0.239 OA
ENDBRANCH  23  24
ENDBRANCH  22  23
ENDBRANCH   6  22
BRANCH  18  29
ATOM     29  O           0     137.601 131.477 144.043  0.00  0.00    -0.362 OA
ATOM     30  H           0     137.928 130.803 143.431  0.00  0.00     0.213 HD
ENDBRANCH  18  29
BRANCH  18  31
ATOM     31  O           0     136.564 132.021 142.008  0.00  0.00    -0.362 OA
ATOM     32  H           0     137.058 132.461 141.302  0.00  0.00     0.213 HD
ENDBRANCH  18  31
TORSDOF 5
ENDMDL
MODEL 2
REMARK VINA RESULT:      -8.0      1.557      1.937
REMARK  5 active torsions:
REMARK  status: ('A' for Active; 'I' for Inactive)
REMARK    1  A    between atoms: C_6  and  C_7 
REMARK    2  A    between atoms: C_7  and  O_8 
REMARK    3  A    between atoms: O_8  and  C_9 
REMARK       I    between atoms: C_9  and  N_10 
REMARK    4  A    between atoms: C_23  and  O_24 
REMARK    5  A    between atoms: C_23  and  O_25 
ROOT
ATOM      1  N           0     137.498 134.954 143.005  0.00  0.00    -0.235 N 
ATOM      2  H           0     137.594 135.823 142.586  0.00  0.00     0.174 HD
ATOM      3  H           0     138.284 134.421 143.203  0.00  0.00     0.174 HD
ATOM      4  C           0     136.312 134.502 143.306  0.00  0.00     0.672 C 
ATOM      5  N           0     135.161 135.226 143.048  0.00  0.00    -0.218 N 
ATOM      6  C           0     133.921 134.492 142.811  0.00  0.00     0.151 C 
ATOM      7  C           0     133.633 133.468 143.892  0.00  0.00     0.180 C 
ATOM      8  N           0     133.117 134.160 145.092  0.00  0.00    -0.216 N 
ATOM      9  C           0     133.669 133.550 146.192  0.00  0.00     0.670 C 
ATOM     10  N           0     133.186 133.639 147.399  0.00  0.00    -0.235 N 
ATOM     11  H           0     132.386 134.163 147.563  0.00  0.00     0.174 HD
ATOM     12  H           0     133.626 133.182 148.132  0.00  0.00     0.174 HD
ATOM     13  C           0     134.864 132.732 144.395  0.00  0.00     0.217 C 
ATOM     14  N           0     134.793 132.834 145.862  0.00  0.00    -0.191 N 
ATOM     15  N           0     136.125 133.278 143.893  0.00  0.00    -0.183 N 
ATOM     16  C           0     137.122 132.212 144.101  0.00  0.00     0.150 C 
ATOM     17  C           0     136.359 130.905 143.775  0.00  0.00     0.093 C 
ATOM     18  C           0     134.862 131.253 143.973  0.00  0.00     0.209 C 
ATOM     19  H           0     135.177 136.195 143.027  0.00  0.00     0.178 HD
ATOM     20  H           0     132.501 134.909 145.102  0.00  0.00     0.178 HD
ATOM     21  H           0     135.430 132.456 146.489  0.00  0.00     0.180 HD
ENDROOT
BRANCH   6  22
ATOM     22  C           0     134.024 133.773 141.465  0.00  0.00     0.208 C 
BRANCH  22  23
ATOM     23  O           0     132.906 134.158 140.624  0.00  0.00    -0.302 OA
BRANCH  23  24
ATOM     24  C           0     133.119 134.890 139.513  0.00  0.00     0.358 C 
ATOM     25  N           0     133.553 136.162 139.617  0.00  0.00    -0.346 N 
ATOM     26  H           0     133.712 136.550 140.492  0.00  0.00     0.161 HD
ATOM     27  H           0     133.706 136.689 138.818  0.00  0.00     0.161 HD
ATOM     28  O           0     132.921 134.403 138.418  0.00  0.00    -0.239 OA
ENDBRANCH  23  24
ENDBRANCH  22  23
ENDBRANCH   6  22
BRANCH  18  29
ATOM     29  O           0     134.294 130.437 144.999  0.00  0.00    -0.362 OA
ATOM     30  H           0     133.333 130.512 144.915  0.00  0.00     0.213 HD
ENDBRANCH  18  29
BRANCH  18  31
ATOM     31  O           0     134.145 131.087 142.748  0.00  0.00    -0.362 OA
ATOM     32  H           0     134.767 131.279 142.032  0.00  0.00     0.213 HD
ENDBRANCH  18  31
TORSDOF 5
ENDMDL
MODEL 3
REMARK VINA RESULT:      -7.2      2.387      3.977
REMARK  5 active torsions:
REMARK  status: ('A' for Active; 'I' for Inactive)
REMARK    1  A    between atoms: C_6  and  C_7 
REMARK    2  A    between atoms: C_7  and  O_8 
REMARK    3  A    between atoms: O_8  and  C_9 
REMARK       I    between atoms: C_9  and  N_10 
REMARK    4  A    between atoms: C_23  and  O_24 
REMARK    5  A    between atoms: C_23  and  O_25 
ROOT
ATOM      1  N           0     134.799 130.450 145.431  0.00  0.00    -0.235 N 
ATOM      2  H           0     134.880 129.510 145.210  0.00  0.00     0.174 HD
ATOM      3  H           0     134.572 130.718 146.336  0.00  0.00     0.174 HD
ATOM      4  C           0     134.998 131.356 144.515  0.00  0.00     0.672 C 
ATOM      5  N           0     135.327 131.025 143.212  0.00  0.00    -0.218 N 
ATOM      6  C           0     134.935 131.942 142.145  0.00  0.00     0.151 C 
ATOM      7  C           0     135.361 133.372 142.418  0.00  0.00     0.180 C 
ATOM      8  N           0     136.808 133.508 142.147  0.00  0.00    -0.216 N 
ATOM      9  C           0     137.337 134.322 143.119  0.00  0.00     0.670 C 
ATOM     10  N           0     138.473 134.950 143.009  0.00  0.00    -0.235 N 
ATOM     11  H           0     139.003 134.857 142.202  0.00  0.00     0.174 HD
ATOM     12  H           0     138.789 135.511 143.735  0.00  0.00     0.174 HD
ATOM     13  C           0     135.220 133.796 143.871  0.00  0.00     0.217 C 
ATOM     14  N           0     136.520 134.393 144.220  0.00  0.00    -0.191 N 
ATOM     15  N           0     134.888 132.696 144.778  0.00  0.00    -0.183 N 
ATOM     16  C           0     134.363 133.340 145.996  0.00  0.00     0.150 C 
ATOM     17  C           0     133.528 134.532 145.469  0.00  0.00     0.093 C 
ATOM     18  C           0     134.100 134.834 144.061  0.00  0.00     0.209 C 
ATOM     19  H           0     135.807 130.207 143.013  0.00  0.00     0.178 HD
ATOM     20  H           0     137.296 133.098 141.416  0.00  0.00     0.178 HD
ATOM     21  H           0     136.757 134.773 145.079  0.00  0.00     0.180 HD
ENDROOT
BRANCH   6  22
ATOM     22  C           0     133.414 131.901 141.994  0.00  0.00     0.208 C 
BRANCH  22  23
ATOM     23  O           0     133.001 132.857 140.983  0.00  0.00    -0.302 OA
BRANCH  23  24
ATOM     24  C           0     131.701 132.965 140.648  0.00  0.00     0.358 C 
ATOM     25  N           0     131.345 133.074 139.353  0.00  0.00    -0.346 N 
ATOM     26  H           0     132.026 133.074 138.661  0.00  0.00     0.161 HD
ATOM     27  H           0     130.409 133.152 139.112  0.00  0.00     0.161 HD
ATOM     28  O           0     130.849 132.964 141.515  0.00  0.00    -0.239 OA
ENDBRANCH  23  24
ENDBRANCH  22  23
ENDBRANCH   6  22
BRANCH  18  29
ATOM     29  O           0     134.630 136.160 144.012  0.00  0.00    -0.362 OA
ATOM     30  H           0     135.391 136.135 143.415  0.00  0.00     0.213 HD
ENDBRANCH  18  29
BRANCH  18  31
ATOM     31  O           0     133.090 134.662 143.065  0.00  0.00    -0.362 OA
ATOM     32  H           0     133.453 135.005 142.236  0.00  0.00     0.213 HD
ENDBRANCH  18  31
TORSDOF 5
ENDMDL
MODEL 4
REMARK VINA RESULT:      -6.8      2.362      3.239
REMARK  5 active torsions:
REMARK  status: ('A' for Active; 'I' for Inactive)
REMARK    1  A    between atoms: C_6  and  C_7 
REMARK    2  A    between atoms: C_7  and  O_8 
REMARK    3  A    between atoms: O_8  and  C_9 
REMARK       I    between atoms: C_9  and  N_10 
REMARK    4  A    between atoms: C_23  and  O_24 
REMARK    5  A    between atoms: C_23  and  O_25 
ROOT
ATOM      1  N           0     134.562 134.761 146.885  0.00  0.00    -0.235 N 
ATOM      2  H           0     133.745 135.252 146.709  0.00  0.00     0.174 HD
ATOM      3  H           0     135.191 135.088 147.548  0.00  0.00     0.174 HD
ATOM      4  C           0     134.816 133.660 146.236  0.00  0.00     0.672 C 
ATOM      5  N           0     133.949 133.150 145.284  0.00  0.00    -0.218 N 
ATOM      6  C           0     134.507 132.348 144.199  0.00  0.00     0.151 C 
ATOM      7  C           0     135.407 131.234 144.699  0.00  0.00     0.180 C 
ATOM      8  N           0     134.572 130.134 145.225  0.00  0.00    -0.216 N 
ATOM      9  C           0     135.186 129.651 146.355  0.00  0.00     0.670 C 
ATOM     10  N           0     134.950 128.479 146.873  0.00  0.00    -0.235 N 
ATOM     11  H           0     134.305 127.885 146.456  0.00  0.00     0.174 HD
ATOM     12  H           0     135.419 128.199 147.674  0.00  0.00     0.174 HD
ATOM     13  C           0     136.282 131.625 145.879  0.00  0.00     0.217 C 
ATOM     14  N           0     136.078 130.557 146.872  0.00  0.00    -0.191 N 
ATOM     15  N           0     135.959 132.935 146.446  0.00  0.00    -0.183 N 
ATOM     16  C           0     137.144 133.322 147.233  0.00  0.00     0.150 C 
ATOM     17  C           0     138.344 132.829 146.387  0.00  0.00     0.093 C 
ATOM     18  C           0     137.769 131.702 145.492  0.00  0.00     0.209 C 
ATOM     19  H           0     132.996 133.320 145.338  0.00  0.00     0.178 HD
ATOM     20  H           0     133.742 129.810 144.841  0.00  0.00     0.178 HD
ATOM     21  H           0     136.504 130.501 147.742  0.00  0.00     0.180 HD
ENDROOT
BRANCH   6  22
ATOM     22  C           0     135.318 133.261 143.278  0.00  0.00     0.208 C 
BRANCH  22  23
ATOM     23  O           0     134.497 134.384 142.863  0.00  0.00    -0.302 OA
BRANCH  23  24
ATOM     24  C           0     134.875 135.641 143.161  0.00  0.00     0.358 C 
ATOM     25  N           0     136.145 135.892 143.537  0.00  0.00    -0.346 N 
ATOM     26  H           0     136.787 135.166 143.593  0.00  0.00     0.161 HD
ATOM     27  H           0     136.418 136.797 143.752  0.00  0.00     0.161 HD
ATOM     28  O           0     134.072 136.550 143.090  0.00  0.00    -0.239 OA
ENDBRANCH  23  24
ENDBRANCH  22  23
ENDBRANCH   6  22
BRANCH  18  29
ATOM     29  O           0     138.426 130.463 145.769  0.00  0.00    -0.362 OA
ATOM     30  H           0     137.799 129.921 146.268  0.00  0.00     0.213 HD
ENDBRANCH  18  29
BRANCH  18  31
ATOM     31  O           0     137.906 132.043 144.111  0.00  0.00    -0.362 OA
ATOM     32  H           0     137.377 131.405 143.612  0.00  0.00     0.213 HD
ENDBRANCH  18  31
TORSDOF 5
ENDMDL
MODEL 5
REMARK VINA RESULT:      -6.8      2.829      4.180
REMARK  5 active torsions:
REMARK  status: ('A' for Active; 'I' for Inactive)
REMARK    1  A    between atoms: C_6  and  C_7 
REMARK    2  A    between atoms: C_7  and  O_8 
REMARK    3  A    between atoms: O_8  and  C_9 
REMARK       I    between atoms: C_9  and  N_10 
REMARK    4  A    between atoms: C_23  and  O_24 
REMARK    5  A    between atoms: C_23  and  O_25 
ROOT
ATOM      1  N           0     137.578 135.168 143.554  0.00  0.00    -0.235 N 
ATOM      2  H           0     137.965 135.874 144.093  0.00  0.00     0.174 HD
ATOM      3  H           0     137.916 135.001 142.659  0.00  0.00     0.174 HD
ATOM      4  C           0     136.609 134.438 144.030  0.00  0.00     0.672 C 
ATOM      5  N           0     136.096 134.633 145.301  0.00  0.00    -0.218 N 
ATOM      6  C           0     134.702 134.276 145.547  0.00  0.00     0.151 C 
ATOM      7  C           0     134.370 132.869 145.087  0.00  0.00     0.180 C 
ATOM      8  N           0     134.901 131.900 146.068  0.00  0.00    -0.216 N 
ATOM      9  C           0     135.407 130.834 145.365  0.00  0.00     0.670 C 
ATOM     10  N           0     135.622 129.654 145.876  0.00  0.00    -0.235 N 
ATOM     11  H           0     135.422 129.487 146.811  0.00  0.00     0.174 HD
ATOM     12  H           0     135.981 128.944 145.322  0.00  0.00     0.174 HD
ATOM     13  C           0     135.035 132.469 143.780  0.00  0.00     0.217 C 
ATOM     14  N           0     135.657 131.164 144.056  0.00  0.00    -0.191 N 
ATOM     15  N           0     136.027 133.432 143.303  0.00  0.00    -0.183 N 
ATOM     16  C           0     136.215 133.124 141.874  0.00  0.00     0.150 C 
ATOM     17  C           0     134.796 132.766 141.369  0.00  0.00     0.093 C 
ATOM     18  C           0     134.016 132.330 142.636  0.00  0.00     0.209 C 
ATOM     19  H           0     136.649 134.997 146.009  0.00  0.00     0.178 HD
ATOM     20  H           0     134.894 131.997 147.034  0.00  0.00     0.178 HD
ATOM     21  H           0     136.157 130.627 143.421  0.00  0.00     0.180 HD
ENDROOT
BRANCH   6  22
ATOM     22  C           0     133.801 135.263 144.803  0.00  0.00     0.208 C 
BRANCH  22  23
ATOM     23  O           0     133.199 136.181 145.753  0.00  0.00    -0.302 OA
BRANCH  23  24
ATOM     24  C           0     132.809 135.737 146.963  0.00  0.00     0.358 C 
ATOM     25  N           0     133.490 136.103 148.067  0.00  0.00    -0.346 N 
ATOM     26  H           0     134.263 136.685 147.990  0.00  0.00     0.161 HD
ATOM     27  H           0     133.210 135.783 148.939  0.00  0.00     0.161 HD
ATOM     28  O           0     131.841 135.008 147.060  0.00  0.00    -0.239 OA
ENDBRANCH  23  24
ENDBRANCH  22  23
ENDBRANCH   6  22
BRANCH  18  29
ATOM     29  O           0     133.581 130.975 142.510  0.00  0.00    -0.362 OA
ATOM     30  H           0     134.061 130.596 141.761  0.00  0.00     0.213 HD
ENDBRANCH  18  29
BRANCH  18  31
ATOM     31  O           0     132.900 133.195 142.857  0.00  0.00    -0.362 OA
ATOM     32  H           0     132.261 133.011 142.154  0.00  0.00     0.213 HD
ENDBRANCH  18  31
TORSDOF 5
ENDMDL
MODEL 6
REMARK VINA RESULT:      -6.8      5.413      9.911
REMARK  5 active torsions:
REMARK  status: ('A' for Active; 'I' for Inactive)
REMARK    1  A    between atoms: C_6  and  C_7 
REMARK    2  A    between atoms: C_7  and  O_8 
REMARK    3  A    between atoms: O_8  and  C_9 
REMARK       I    between atoms: C_9  and  N_10 
REMARK    4  A    between atoms: C_23  and  O_24 
REMARK    5  A    between atoms: C_23  and  O_25 
ROOT
ATOM      1  N           0     131.453 132.171 134.977  0.00  0.00    -0.235 N 
ATOM      2  H           0     130.869 131.823 135.668  0.00  0.00     0.174 HD
ATOM      3  H           0     131.833 131.571 134.315  0.00  0.00     0.174 HD
ATOM      4  C           0     131.725 133.445 134.933  0.00  0.00     0.672 C 
ATOM      5  N           0     131.204 134.342 135.850  0.00  0.00    -0.218 N 
ATOM      6  C           0     131.972 135.546 136.154  0.00  0.00     0.151 C 
ATOM      7  C           0     132.394 136.299 134.907  0.00  0.00     0.180 C 
ATOM      8  N           0     131.234 137.046 134.375  0.00  0.00    -0.216 N 
ATOM      9  C           0     131.274 136.953 133.005  0.00  0.00     0.670 C 
ATOM     10  N           0     130.648 137.761 132.197  0.00  0.00    -0.235 N 
ATOM     11  H           0     130.111 138.485 132.556  0.00  0.00     0.174 HD
ATOM     12  H           0     130.719 137.639 131.238  0.00  0.00     0.174 HD
ATOM     13  C           0     132.813 135.404 133.752  0.00  0.00     0.217 C 
ATOM     14  N           0     132.056 135.903 132.592  0.00  0.00    -0.191 N 
ATOM     15  N           0     132.549 133.983 133.979  0.00  0.00    -0.183 N 
ATOM     16  C           0     133.398 133.268 133.009  0.00  0.00     0.150 C 
ATOM     17  C           0     134.714 134.082 132.979  0.00  0.00     0.093 C 
ATOM     18  C           0     134.323 135.499 133.470  0.00  0.00     0.209 C 
ATOM     19  H           0     130.351 134.175 136.279  0.00  0.00     0.178 HD
ATOM     20  H           0     130.566 137.517 134.898  0.00  0.00     0.178 HD
ATOM     21  H           0     132.103 135.551 131.690  0.00  0.00     0.180 HD
ENDROOT
BRANCH   6  22
ATOM     22  C           0     133.225 135.147 136.936  0.00  0.00     0.208 C 
BRANCH  22  23
ATOM     23  O           0     132.843 134.355 138.091  0.00  0.00    -0.302 OA
BRANCH  23  24
ATOM     24  C           0     133.036 134.839 139.333  0.00  0.00     0.358 C 
ATOM     25  N           0     133.546 136.074 139.504  0.00  0.00    -0.346 N 
ATOM     26  H           0     133.775 136.616 138.732  0.00  0.00     0.161 HD
ATOM     27  H           0     133.685 136.422 140.399  0.00  0.00     0.161 HD
ATOM     28  O           0     132.749 134.160 140.300  0.00  0.00    -0.239 OA
ENDBRANCH  23  24
ENDBRANCH  22  23
ENDBRANCH   6  22
BRANCH  18  29
ATOM     29  O           0     134.585 136.468 132.454  0.00  0.00    -0.362 OA
ATOM     30  H           0     135.500 136.335 132.170  0.00  0.00     0.213 HD
ENDBRANCH  18  29
BRANCH  18  31
ATOM     31  O           0     135.032 135.826 134.667  0.00  0.00    -0.362 OA
ATOM     32  H           0     134.384 136.194 135.284  0.00  0.00     0.213 HD
ENDBRANCH  18  31
TORSDOF 5
ENDMDL
MODEL 7
REMARK VINA RESULT:      -6.6      1.807      2.275
REMARK  5 active torsions:
REMARK  status: ('A' for Active; 'I' for Inactive)
REMARK    1  A    between atoms: C_6  and  C_7 
REMARK    2  A    between atoms: C_7  and  O_8 
REMARK    3  A    between atoms: O_8  and  C_9 
REMARK       I    between atoms: C_9  and  N_10 
REMARK    4  A    between atoms: C_23  and  O_24 
REMARK    5  A    between atoms: C_23  and  O_25 
ROOT
ATOM      1  N           0     134.166 134.970 145.773  0.00  0.00    -0.235 N 
ATOM      2  H           0     133.324 135.377 145.517  0.00  0.00     0.174 HD
ATOM      3  H           0     134.754 135.423 146.397  0.00  0.00     0.174 HD
ATOM      4  C           0     134.506 133.811 145.282  0.00  0.00     0.672 C 
ATOM      5  N           0     133.700 133.122 144.393  0.00  0.00    -0.218 N 
ATOM      6  C           0     134.337 132.221 143.436  0.00  0.00     0.151 C 
ATOM      7  C           0     135.291 131.247 144.098  0.00  0.00     0.180 C 
ATOM      8  N           0     134.514 130.173 144.752  0.00  0.00    -0.216 N 
ATOM      9  C           0     135.125 129.887 145.948  0.00  0.00     0.670 C 
ATOM     10  N           0     134.950 128.781 146.615  0.00  0.00    -0.235 N 
ATOM     11  H           0     134.356 128.096 146.269  0.00  0.00     0.174 HD
ATOM     12  H           0     135.414 128.643 147.455  0.00  0.00     0.174 HD
ATOM     13  C           0     136.107 131.848 145.231  0.00  0.00     0.217 C 
ATOM     14  N           0     135.944 130.911 146.355  0.00  0.00    -0.191 N 
ATOM     15  N           0     135.687 133.198 145.610  0.00  0.00    -0.183 N 
ATOM     16  C           0     136.823 133.764 146.359  0.00  0.00     0.150 C 
ATOM     17  C           0     138.074 133.243 145.610  0.00  0.00     0.093 C 
ATOM     18  C           0     137.596 131.971 144.865  0.00  0.00     0.209 C 
ATOM     19  H           0     132.737 133.234 144.405  0.00  0.00     0.178 HD
ATOM     20  H           0     133.716 129.746 144.400  0.00  0.00     0.178 HD
ATOM     21  H           0     136.349 131.000 147.232  0.00  0.00     0.180 HD
ENDROOT
BRANCH   6  22
ATOM     22  C           0     135.113 133.055 142.415  0.00  0.00     0.208 C 
BRANCH  22  23
ATOM     23  O           0     134.301 133.245 141.227  0.00  0.00    -0.302 OA
BRANCH  23  24
ATOM     24  C           0     133.666 134.416 141.026  0.00  0.00     0.358 C 
ATOM     25  N           0     134.000 135.498 141.755  0.00  0.00    -0.346 N 
ATOM     26  H           0     134.699 135.435 142.426  0.00  0.00     0.161 HD
ATOM     27  H           0     133.542 136.341 141.610  0.00  0.00     0.161 HD
ATOM     28  O           0     132.791 134.495 140.186  0.00  0.00    -0.239 OA
ENDBRANCH  23  24
ENDBRANCH  22  23
ENDBRANCH   6  22
BRANCH  18  29
ATOM     29  O           0     138.322 130.827 145.318  0.00  0.00    -0.362 OA
ATOM     30  H           0     139.212 131.132 145.545  0.00  0.00     0.213 HD
ENDBRANCH  18  29
BRANCH  18  31
ATOM     31  O           0     137.749 132.134 143.453  0.00  0.00    -0.362 OA
ATOM     32  H           0     138.323 132.901 143.321  0.00  0.00     0.213 HD
ENDBRANCH  18  31
TORSDOF 5
ENDMDL
MODEL 8
REMARK VINA RESULT:      -6.5      2.480      5.631
REMARK  5 active torsions:
REMARK  status: ('A' for Active; 'I' for Inactive)
REMARK    1  A    between atoms: C_6  and  C_7 
REMARK    2  A    between atoms: C_7  and  O_8 
REMARK    3  A    between atoms: O_8  and  C_9 
REMARK       I    between atoms: C_9  and  N_10 
REMARK    4  A    between atoms: C_23  and  O_24 
REMARK    5  A    between atoms: C_23  and  O_25 
ROOT
ATOM      1  N           0     135.147 129.861 145.004  0.00  0.00    -0.235 N 
ATOM      2  H           0     135.480 129.271 145.698  0.00  0.00     0.174 HD
ATOM      3  H           0     134.633 129.498 144.265  0.00  0.00     0.174 HD
ATOM      4  C           0     135.386 131.141 145.066  0.00  0.00     0.672 C 
ATOM      5  N           0     136.109 131.706 146.102  0.00  0.00    -0.218 N 
ATOM      6  C           0     136.858 132.930 145.834  0.00  0.00     0.151 C 
ATOM      7  C           0     136.011 134.002 145.177  0.00  0.00     0.180 C 
ATOM      8  N           0     135.145 134.630 146.197  0.00  0.00    -0.216 N 
ATOM      9  C           0     133.917 134.849 145.621  0.00  0.00     0.670 C 
ATOM     10  N           0     133.033 135.692 146.077  0.00  0.00    -0.235 N 
ATOM     11  H           0     133.226 136.212 146.873  0.00  0.00     0.174 HD
ATOM     12  H           0     132.185 135.799 145.620  0.00  0.00     0.174 HD
ATOM     13  C           0     135.032 133.473 144.142  0.00  0.00     0.217 C 
ATOM     14  N           0     133.736 134.072 144.504  0.00  0.00    -0.191 N 
ATOM     15  N           0     134.942 132.013 144.106  0.00  0.00    -0.183 N 
ATOM     16  C           0     134.332 131.691 142.803  0.00  0.00     0.150 C 
ATOM     17  C           0     134.960 132.712 141.824  0.00  0.00     0.093 C 
ATOM     18  C           0     135.421 133.893 142.714  0.00  0.00     0.209 C 
ATOM     19  H           0     136.117 131.300 146.982  0.00  0.00     0.178 HD
ATOM     20  H           0     135.396 134.848 147.108  0.00  0.00     0.178 HD
ATOM     21  H           0     132.899 133.941 144.032  0.00  0.00     0.180 HD
ENDROOT
BRANCH   6  22
ATOM     22  C           0     138.034 132.598 144.914  0.00  0.00     0.208 C 
BRANCH  22  23
ATOM     23  O           0     138.957 131.717 145.606  0.00  0.00    -0.302 OA
BRANCH  23  24
ATOM     24  C           0     140.088 132.214 146.144  0.00  0.00     0.358 C 
ATOM     25  N           0     140.068 132.743 147.383  0.00  0.00    -0.346 N 
ATOM     26  H           0     139.239 132.767 147.888  0.00  0.00     0.161 HD
ATOM     27  H           0     140.882 133.102 147.770  0.00  0.00     0.161 HD
ATOM     28  O           0     141.125 132.184 145.512  0.00  0.00    -0.239 OA
ENDBRANCH  23  24
ENDBRANCH  22  23
ENDBRANCH   6  22
BRANCH  18  29
ATOM     29  O           0     134.742 135.093 142.340  0.00  0.00    -0.362 OA
ATOM     30  H           0     135.247 135.829 142.714  0.00  0.00     0.213 HD
ENDBRANCH  18  29
BRANCH  18  31
ATOM     31  O           0     136.836 134.069 142.617  0.00  0.00    -0.362 OA
ATOM     32  H           0     137.165 133.368 142.036  0.00  0.00     0.213 HD
ENDBRANCH  18  31
TORSDOF 5
ENDMDL
MODEL 9
REMARK VINA RESULT:      -6.1      7.391      9.901
REMARK  5 active torsions:
REMARK  status: ('A' for Active; 'I' for Inactive)
REMARK    1  A    between atoms: C_6  and  C_7 
REMARK    2  A    between atoms: C_7  and  O_8 
REMARK    3  A    between atoms: O_8  and  C_9 
REMARK       I    between atoms: C_9  and  N_10 
REMARK    4  A    between atoms: C_23  and  O_24 
REMARK    5  A    between atoms: C_23  and  O_25 
ROOT
ATOM      1  N           0     129.278 135.851 132.814  0.00  0.00    -0.235 N 
ATOM      2  H           0     128.388 135.475 132.728  0.00  0.00     0.174 HD
ATOM      3  H           0     129.499 136.680 132.362  0.00  0.00     0.174 HD
ATOM      4  C           0     130.176 135.244 133.538  0.00  0.00     0.672 C 
ATOM      5  N           0     129.908 134.061 134.205  0.00  0.00    -0.218 N 
ATOM      6  C           0     131.013 133.139 134.450  0.00  0.00     0.151 C 
ATOM      7  C           0     132.205 133.816 135.098  0.00  0.00     0.180 C 
ATOM      8  N           0     131.924 134.025 136.534  0.00  0.00    -0.216 N 
ATOM      9  C           0     132.425 135.257 136.878  0.00  0.00     0.670 C 
ATOM     10  N           0     132.685 135.626 138.101  0.00  0.00    -0.235 N 
ATOM     11  H           0     132.526 135.013 138.836  0.00  0.00     0.174 HD
ATOM     12  H           0     133.039 136.512 138.275  0.00  0.00     0.174 HD
ATOM     13  C           0     132.488 135.214 134.572  0.00  0.00     0.217 C 
ATOM     14  N           0     132.618 136.052 135.776  0.00  0.00    -0.191 N 
ATOM     15  N           0     131.448 135.732 133.683  0.00  0.00    -0.183 N 
ATOM     16  C           0     132.081 136.841 132.947  0.00  0.00     0.150 C 
ATOM     17  C           0     133.522 136.346 132.673  0.00  0.00     0.093 C 
ATOM     18  C           0     133.790 135.268 133.754  0.00  0.00     0.209 C 
ATOM     19  H           0     129.009 133.851 134.503  0.00  0.00     0.178 HD
ATOM     20  H           0     131.469 133.406 137.126  0.00  0.00     0.178 HD
ATOM     21  H           0     132.810 137.002 135.788  0.00  0.00     0.180 HD
ENDROOT
BRANCH   6  22
ATOM     22  C           0     131.454 132.533 133.117  0.00  0.00     0.208 C 
BRANCH  22  23
ATOM     23  O           0     132.570 131.632 133.339  0.00  0.00    -0.302 OA
BRANCH  23  24
ATOM     24  C           0     132.345 130.324 133.571  0.00  0.00     0.358 C 
ATOM     25  N           0     131.094 129.830 133.482  0.00  0.00    -0.346 N 
ATOM     26  H           0     130.356 130.416 133.253  0.00  0.00     0.161 HD
ATOM     27  H           0     130.932 128.888 133.650  0.00  0.00     0.161 HD
ATOM     28  O           0     133.270 129.591 133.858  0.00  0.00    -0.239 OA
ENDBRANCH  23  24
ENDBRANCH  22  23
ENDBRANCH   6  22
BRANCH  18  29
ATOM     29  O           0     134.888 135.656 134.582  0.00  0.00    -0.362 OA
ATOM     30  H           0     135.159 134.868 135.073  0.00  0.00     0.213 HD
ENDBRANCH  18  29
BRANCH  18  31
ATOM     31  O           0     134.046 134.002 133.143  0.00  0.00    -0.362 OA
ATOM     32  H           0     134.007 133.340 133.847  0.00  0.00     0.213 HD
ENDBRANCH  18  31
TORSDOF 5
ENDMDL
