# created with PyMOL 2.3.4
@<TRIPOS>MOLECULE
ligand_out_0001
34 36 1                 
SMALL
USER_CHARGES
@<TRIPOS>ATOM
1	   N	134.747	132.002	146.672	N.3	1	UNK0	-0.235	
2	   N	136.207	133.773	146.158	N.3	1	UNK0	-0.218	
3	   N	136.063	135.803	143.843	N.3	1	UNK0	-0.216	
4	   N	134.309	136.768	142.583	N.3	1	UNK0	-0.235	
5	   N	134.494	134.436	142.932	N.3	1	UNK0	-0.191	
6	   N	135.090	132.648	144.449	N.3	1	UNK0	-0.183	
7	   N	137.905	130.915	147.734	N.pl3	1	UNK0	-0.333	
8	   C	135.321	132.775	145.794	C.3	1	UNK0	0.672	
9	   C	137.246	134.158	145.206	C.3	1	UNK0	0.151	
10	   C	136.692	134.465	143.829	C.3	1	UNK0	0.180	
11	   C	134.918	135.732	143.089	C.3	1	UNK0	0.670	
12	   C	135.567	133.538	143.390	C.3	1	UNK0	0.217	
13	   C	134.367	131.568	143.752	C.3	1	UNK0	0.150	
14	   C	135.207	131.303	142.481	C.3	1	UNK0	0.093	
15	   C	136.000	132.612	142.241	C.3	1	UNK0	0.209	
16	   C	138.255	133.014	145.087	C.2	1	UNK0	0.208	
17	   C	138.753	131.356	146.784	C.2	1	UNK0	0.360	
18	   C	137.928	129.508	148.142	C.3	1	UNK0	0.078	
19	   C	138.041	129.420	149.664	C.3	1	UNK0	0.032	
20	   C	136.638	128.823	147.684	C.3	1	UNK0	0.032	
21	   O	138.731	132.649	146.409	O.2	1	UNK0	-0.302	
22	   O	139.537	130.586	146.265	O.co2	1	UNK0	-0.239	
23	   O	135.652	133.182	140.978	O.2	1	UNK0	-0.362	
24	   O	137.406	132.363	142.307	O.2	1	UNK0	-0.362	
25	   H	134.936	132.117	147.617	 H	1	UNK0	0.174	
26	   H	134.128	131.314	146.382	 H	1	UNK0	0.174	
27	   H	134.663	137.658	142.732	 H	1	UNK0	0.174	
28	   H	133.503	136.647	142.059	 H	1	UNK0	0.174	
29	   H	136.141	134.208	147.023	 H	1	UNK0	0.178	
30	   H	136.399	136.588	144.304	 H	1	UNK0	0.178	
31	   H	133.635	134.159	142.578	 H	1	UNK0	0.180	
32	   H	137.279	131.529	148.148	 H	1	UNK0	0.165	
33	   H	136.109	132.662	140.301	 H	1	UNK0	0.213	
34	   H	137.581	131.596	141.744	 H	1	UNK0	0.213	
@<TRIPOS>BOND
1 1 8 1
2 1 25 1
3 1 26 1
4 2 9 1
5 2 29 1
6 3 11 1
7 3 30 1
8 4 27 1
9 4 28 1
10 5 31 1
11 6 13 1
12 7 18 1
13 7 32 1
14 2 8 1
15 6 8 1
16 9 10 1
17 9 16 1
18 3 10 1
19 10 12 1
20 4 11 1
21 5 11 1
22 5 12 1
23 6 12 1
24 12 15 1
25 13 14 1
26 14 15 1
27 15 23 2
28 15 24 2
29 16 21 2
30 7 17 1
31 17 22 2
32 18 19 1
33 18 20 1
34 17 21 2
35 23 33 1
36 24 34 1
@<TRIPOS>SUBSTRUCTURE
1	UNK0	1	GROUP	1 ****	UNK
