MODEL 1
REMARK VINA RESULT:      -7.2      0.000      0.000
REMARK  5 active torsions:
REMARK  status: ('A' for Active; 'I' for Inactive)
REMARK    1  A    between atoms: C_6  and  C_7 
REMARK    2  A    between atoms: C_7  and  O_8 
REMARK    3  A    between atoms: O_8  and  C_9 
REMARK    4  A    between atoms: C_23  and  O_24 
REMARK    5  A    between atoms: C_23  and  O_25 
ROOT
ATOM      1  N           0     134.904 131.971 146.619  0.00  0.00    -0.235 N 
ATOM      2  H           0     135.165 132.043 147.551  0.00  0.00     0.174 HD
ATOM      3  H           0     134.231 131.325 146.354  0.00  0.00     0.174 HD
ATOM      4  C           0     135.452 132.747 145.727  0.00  0.00     0.672 C 
ATOM      5  N           0     136.411 133.689 146.059  0.00  0.00    -0.218 N 
ATOM      6  C           0     137.396 134.057 145.047  0.00  0.00     0.151 C 
ATOM      7  C           0     136.762 134.440 143.724  0.00  0.00     0.180 C 
ATOM      8  N           0     136.204 135.805 143.829  0.00  0.00    -0.216 N 
ATOM      9  C           0     135.005 135.816 143.158  0.00  0.00     0.670 C 
ATOM     10  N           0     134.414 136.898 142.733  0.00  0.00    -0.235 N 
ATOM     11  H           0     134.823 137.765 142.884  0.00  0.00     0.174 HD
ATOM     12  H           0     133.569 136.836 142.264  0.00  0.00     0.174 HD
ATOM     13  C           0     135.563 133.586 143.339  0.00  0.00     0.217 C 
ATOM     14  N           0     134.506 134.549 142.990  0.00  0.00    -0.191 N 
ATOM     15  N           0     135.118 132.680 144.399  0.00  0.00    -0.183 N 
ATOM     16  C           0     134.296 131.662 143.723  0.00  0.00     0.150 C 
ATOM     17  C           0     135.028 131.404 142.384  0.00  0.00     0.093 C 
ATOM     18  C           0     135.867 132.682 142.131  0.00  0.00     0.209 C 
ATOM     19  H           0     136.426 134.093 146.941  0.00  0.00     0.178 HD
ATOM     20  H           0     136.610 136.557 144.290  0.00  0.00     0.178 HD
ATOM     21  H           0     133.611 134.326 142.691  0.00  0.00     0.180 HD
ENDROOT
BRANCH   6  22
ATOM     22  C           0     138.335 132.872 144.817  0.00  0.00     0.206 C 
BRANCH  22  23
ATOM     23  O           0     138.970 132.506 146.071  0.00  0.00    -0.320 OA
BRANCH  23  24
ATOM     24  C           0     138.929 131.235 146.499  0.00  0.00     0.254 C 
ATOM     25  C           0     140.206 130.517 146.851  0.00  0.00     0.126 C 
ATOM     26  O           0     137.868 130.666 146.602  0.00  0.00    -0.266 OA
ENDBRANCH  23  24
ENDBRANCH  22  23
ENDBRANCH   6  22
BRANCH  18  27
ATOM     27  O           0     135.459 133.313 140.916  0.00  0.00    -0.362 OA
ATOM     28  H           0     135.335 132.610 140.264  0.00  0.00     0.213 HD
ENDBRANCH  18  27
BRANCH  18  29
ATOM     29  O           0     137.259 132.364 142.087  0.00  0.00    -0.362 OA
ATOM     30  H           0     137.533 132.182 142.996  0.00  0.00     0.213 HD
ENDBRANCH  18  29
TORSDOF 5
ENDMDL
MODEL 2
REMARK VINA RESULT:      -6.6      2.492      4.907
REMARK  5 active torsions:
REMARK  status: ('A' for Active; 'I' for Inactive)
REMARK    1  A    between atoms: C_6  and  C_7 
REMARK    2  A    between atoms: C_7  and  O_8 
REMARK    3  A    between atoms: O_8  and  C_9 
REMARK    4  A    between atoms: C_23  and  O_24 
REMARK    5  A    between atoms: C_23  and  O_25 
ROOT
ATOM      1  N           0     139.679 130.587 146.057  0.00  0.00    -0.235 N 
ATOM      2  H           0     140.434 130.736 145.466  0.00  0.00     0.174 HD
ATOM      3  H           0     139.716 129.879 146.720  0.00  0.00     0.174 HD
ATOM      4  C           0     138.620 131.340 145.965  0.00  0.00     0.672 C 
ATOM      5  N           0     138.523 132.366 145.041  0.00  0.00    -0.218 N 
ATOM      6  C           0     137.197 132.736 144.556  0.00  0.00     0.151 C 
ATOM      7  C           0     136.211 132.988 145.681  0.00  0.00     0.180 C 
ATOM      8  N           0     136.481 134.315 146.276  0.00  0.00    -0.216 N 
ATOM      9  C           0     136.327 134.199 147.636  0.00  0.00     0.670 C 
ATOM     10  N           0     136.128 135.206 148.439  0.00  0.00    -0.235 N 
ATOM     11  H           0     136.082 136.108 148.083  0.00  0.00     0.174 HD
ATOM     12  H           0     136.027 135.055 149.390  0.00  0.00     0.174 HD
ATOM     13  C           0     136.349 132.029 146.853  0.00  0.00     0.217 C 
ATOM     14  N           0     136.406 132.891 148.045  0.00  0.00    -0.191 N 
ATOM     15  N           0     137.528 131.165 146.775  0.00  0.00    -0.183 N 
ATOM     16  C           0     137.256 130.050 147.699  0.00  0.00     0.150 C 
ATOM     17  C           0     135.747 129.758 147.516  0.00  0.00     0.093 C 
ATOM     18  C           0     135.148 131.073 146.957  0.00  0.00     0.209 C 
ATOM     19  H           0     139.316 132.827 144.724  0.00  0.00     0.178 HD
ATOM     20  H           0     136.723 135.121 145.793  0.00  0.00     0.178 HD
ATOM     21  H           0     136.484 132.587 148.963  0.00  0.00     0.180 HD
ENDROOT
BRANCH   6  22
ATOM     22  C           0     136.660 131.608 143.675  0.00  0.00     0.206 C 
BRANCH  22  23
ATOM     23  O           0     135.939 132.173 142.549  0.00  0.00    -0.320 OA
BRANCH  23  24
ATOM     24  C           0     134.598 132.143 142.526  0.00  0.00     0.254 C 
ATOM     25  C           0     133.816 133.428 142.434  0.00  0.00     0.126 C 
ATOM     26  O           0     134.017 131.085 142.580  0.00  0.00    -0.266 OA
ENDBRANCH  23  24
ENDBRANCH  22  23
ENDBRANCH   6  22
BRANCH  18  27
ATOM     27  O           0     134.166 131.594 147.854  0.00  0.00    -0.362 OA
ATOM     28  H           0     134.573 131.617 148.730  0.00  0.00     0.213 HD
ENDBRANCH  18  27
BRANCH  18  29
ATOM     29  O           0     134.577 130.851 145.665  0.00  0.00    -0.362 OA
ATOM     30  H           0     133.618 130.842 145.782  0.00  0.00     0.213 HD
ENDBRANCH  18  29
TORSDOF 5
ENDMDL
MODEL 3
REMARK VINA RESULT:      -6.4      9.150     12.202
REMARK  5 active torsions:
REMARK  status: ('A' for Active; 'I' for Inactive)
REMARK    1  A    between atoms: C_6  and  C_7 
REMARK    2  A    between atoms: C_7  and  O_8 
REMARK    3  A    between atoms: O_8  and  C_9 
REMARK    4  A    between atoms: C_23  and  O_24 
REMARK    5  A    between atoms: C_23  and  O_25 
ROOT
ATOM      1  N           0     132.228 137.303 132.413  0.00  0.00    -0.235 N 
ATOM      2  H           0     131.466 137.893 132.302  0.00  0.00     0.174 HD
ATOM      3  H           0     132.982 137.366 131.806  0.00  0.00     0.174 HD
ATOM      4  C           0     132.241 136.431 133.381  0.00  0.00     0.672 C 
ATOM      5  N           0     131.192 136.307 134.276  0.00  0.00    -0.218 N 
ATOM      6  C           0     130.957 135.004 134.891  0.00  0.00     0.151 C 
ATOM      7  C           0     132.210 134.415 135.510  0.00  0.00     0.180 C 
ATOM      8  N           0     132.480 135.091 136.797  0.00  0.00    -0.216 N 
ATOM      9  C           0     133.838 135.274 136.893  0.00  0.00     0.670 C 
ATOM     10  N           0     134.470 135.498 138.011  0.00  0.00    -0.235 N 
ATOM     11  H           0     133.977 135.544 138.846  0.00  0.00     0.174 HD
ATOM     12  H           0     135.431 135.618 138.009  0.00  0.00     0.174 HD
ATOM     13  C           0     133.475 134.654 134.701  0.00  0.00     0.217 C 
ATOM     14  N           0     134.448 135.191 135.666  0.00  0.00    -0.191 N 
ATOM     15  N           0     133.292 135.573 133.576  0.00  0.00    -0.183 N 
ATOM     16  C           0     134.440 135.330 132.684  0.00  0.00     0.150 C 
ATOM     17  C           0     134.654 133.799 132.742  0.00  0.00     0.093 C 
ATOM     18  C           0     134.016 133.354 134.082  0.00  0.00     0.209 C 
ATOM     19  H           0     130.628 137.068 134.490  0.00  0.00     0.178 HD
ATOM     20  H           0     131.818 135.358 137.455  0.00  0.00     0.178 HD
ATOM     21  H           0     135.364 135.441 135.470  0.00  0.00     0.180 HD
ENDROOT
BRANCH   6  22
ATOM     22  C           0     130.437 134.041 133.823  0.00  0.00     0.206 C 
BRANCH  22  23
ATOM     23  O           0     129.132 134.483 133.365  0.00  0.00    -0.320 OA
BRANCH  23  24
ATOM     24  C           0     128.769 134.294 132.088  0.00  0.00     0.254 C 
ATOM     25  C           0     127.584 133.422 131.762  0.00  0.00     0.126 C 
ATOM     26  O           0     129.392 134.821 131.197  0.00  0.00    -0.266 OA
ENDBRANCH  23  24
ENDBRANCH  22  23
ENDBRANCH   6  22
BRANCH  18  27
ATOM     27  O           0     135.000 132.764 134.932  0.00  0.00    -0.362 OA
ATOM     28  H           0     134.875 133.144 135.811  0.00  0.00     0.213 HD
ENDBRANCH  18  27
BRANCH  18  29
ATOM     29  O           0     132.947 132.436 133.843  0.00  0.00    -0.362 OA
ATOM     30  H           0     133.216 131.880 133.099  0.00  0.00     0.213 HD
ENDBRANCH  18  29
TORSDOF 5
ENDMDL
MODEL 4
REMARK VINA RESULT:      -6.3     11.597     14.138
REMARK  5 active torsions:
REMARK  status: ('A' for Active; 'I' for Inactive)
REMARK    1  A    between atoms: C_6  and  C_7 
REMARK    2  A    between atoms: C_7  and  O_8 
REMARK    3  A    between atoms: O_8  and  C_9 
REMARK    4  A    between atoms: C_23  and  O_24 
REMARK    5  A    between atoms: C_23  and  O_25 
ROOT
ATOM      1  N           0     130.511 131.688 135.515  0.00  0.00    -0.235 N 
ATOM      2  H           0     129.679 132.042 135.866  0.00  0.00     0.174 HD
ATOM      3  H           0     131.353 131.923 135.936  0.00  0.00     0.174 HD
ATOM      4  C           0     130.497 130.893 134.483  0.00  0.00     0.672 C 
ATOM      5  N           0     129.321 130.524 133.853  0.00  0.00    -0.218 N 
ATOM      6  C           0     129.372 130.194 132.432  0.00  0.00     0.151 C 
ATOM      7  C           0     130.449 129.177 132.106  0.00  0.00     0.180 C 
ATOM      8  N           0     129.987 127.832 132.510  0.00  0.00    -0.216 N 
ATOM      9  C           0     131.061 127.170 133.052  0.00  0.00     0.670 C 
ATOM     10  N           0     131.134 125.875 133.182  0.00  0.00    -0.235 N 
ATOM     11  H           0     130.398 125.316 132.886  0.00  0.00     0.174 HD
ATOM     12  H           0     131.922 125.470 133.574  0.00  0.00     0.174 HD
ATOM     13  C           0     131.741 129.368 132.886  0.00  0.00     0.217 C 
ATOM     14  N           0     132.049 128.040 133.441  0.00  0.00    -0.191 N 
ATOM     15  N           0     131.646 130.371 133.948  0.00  0.00    -0.183 N 
ATOM     16  C           0     133.038 130.733 134.267  0.00  0.00     0.150 C 
ATOM     17  C           0     133.755 130.746 132.896  0.00  0.00     0.093 C 
ATOM     18  C           0     132.894 129.838 131.982  0.00  0.00     0.209 C 
ATOM     19  H           0     128.484 130.485 134.344  0.00  0.00     0.178 HD
ATOM     20  H           0     129.088 127.481 132.410  0.00  0.00     0.178 HD
ATOM     21  H           0     132.820 127.818 133.986  0.00  0.00     0.180 HD
ENDROOT
BRANCH   6  22
ATOM     22  C           0     129.644 131.472 131.638  0.00  0.00     0.206 C 
BRANCH  22  23
ATOM     23  O           0     128.386 132.046 131.197  0.00  0.00    -0.320 OA
BRANCH  23  24
ATOM     24  C           0     127.903 133.146 131.795  0.00  0.00     0.254 C 
ATOM     25  C           0     128.849 134.192 132.325  0.00  0.00     0.126 C 
ATOM     26  O           0     126.710 133.297 131.909  0.00  0.00    -0.266 OA
ENDBRANCH  23  24
ENDBRANCH  22  23
ENDBRANCH   6  22
BRANCH  18  27
ATOM     27  O           0     133.659 128.723 131.523  0.00  0.00    -0.362 OA
ATOM     28  H           0     134.563 129.039 131.394  0.00  0.00     0.213 HD
ENDBRANCH  18  27
BRANCH  18  29
ATOM     29  O           0     132.384 130.585 130.876  0.00  0.00    -0.362 OA
ATOM     30  H           0     131.595 131.048 131.191  0.00  0.00     0.213 HD
ENDBRANCH  18  29
TORSDOF 5
ENDMDL
MODEL 5
REMARK VINA RESULT:      -6.2      9.657     12.253
REMARK  5 active torsions:
REMARK  status: ('A' for Active; 'I' for Inactive)
REMARK    1  A    between atoms: C_6  and  C_7 
REMARK    2  A    between atoms: C_7  and  O_8 
REMARK    3  A    between atoms: O_8  and  C_9 
REMARK    4  A    between atoms: C_23  and  O_24 
REMARK    5  A    between atoms: C_23  and  O_25 
ROOT
ATOM      1  N           0     128.802 134.074 132.074  0.00  0.00    -0.235 N 
ATOM      2  H           0     128.093 133.643 131.571  0.00  0.00     0.174 HD
ATOM      3  H           0     128.940 135.030 131.994  0.00  0.00     0.174 HD
ATOM      4  C           0     129.564 133.368 132.861  0.00  0.00     0.672 C 
ATOM      5  N           0     129.401 132.001 133.013  0.00  0.00    -0.218 N 
ATOM      6  C           0     130.572 131.201 133.357  0.00  0.00     0.151 C 
ATOM      7  C           0     131.323 131.747 134.556  0.00  0.00     0.180 C 
ATOM      8  N           0     130.589 131.397 135.791  0.00  0.00    -0.216 N 
ATOM      9  C           0     130.656 132.479 136.634  0.00  0.00     0.670 C 
ATOM     10  N           0     130.448 132.420 137.920  0.00  0.00    -0.235 N 
ATOM     11  H           0     130.230 131.571 138.337  0.00  0.00     0.174 HD
ATOM     12  H           0     130.512 133.223 138.459  0.00  0.00     0.174 HD
ATOM     13  C           0     131.405 133.266 134.599  0.00  0.00     0.217 C 
ATOM     14  N           0     130.970 133.631 135.956  0.00  0.00    -0.191 N 
ATOM     15  N           0     130.581 133.930 133.588  0.00  0.00    -0.183 N 
ATOM     16  C           0     131.119 135.298 133.484  0.00  0.00     0.150 C 
ATOM     17  C           0     132.650 135.118 133.613  0.00  0.00     0.093 C 
ATOM     18  C           0     132.837 133.771 134.354  0.00  0.00     0.209 C 
ATOM     19  H           0     128.532 131.588 132.894  0.00  0.00     0.178 HD
ATOM     20  H           0     130.141 130.556 135.972  0.00  0.00     0.178 HD
ATOM     21  H           0     130.917 134.532 136.312  0.00  0.00     0.180 HD
ENDROOT
BRANCH   6  22
ATOM     22  C           0     131.519 131.168 132.156  0.00  0.00     0.206 C 
BRANCH  22  23
ATOM     23  O           0     132.673 130.346 132.472  0.00  0.00    -0.320 OA
BRANCH  23  24
ATOM     24  C           0     132.584 129.008 132.402  0.00  0.00     0.254 C 
ATOM     25  C           0     131.927 128.357 131.213  0.00  0.00     0.126 C 
ATOM     26  O           0     133.030 128.326 133.294  0.00  0.00    -0.266 OA
ENDBRANCH  23  24
ENDBRANCH  22  23
ENDBRANCH   6  22
BRANCH  18  27
ATOM     27  O           0     133.517 133.974 135.594  0.00  0.00    -0.362 OA
ATOM     28  H           0     132.854 134.273 136.231  0.00  0.00     0.213 HD
ENDBRANCH  18  27
BRANCH  18  29
ATOM     29  O           0     133.556 132.847 133.535  0.00  0.00    -0.362 OA
ATOM     30  H           0     132.917 132.189 133.229  0.00  0.00     0.213 HD
ENDBRANCH  18  29
TORSDOF 5
ENDMDL
MODEL 6
REMARK VINA RESULT:      -6.2      2.515      3.884
REMARK  5 active torsions:
REMARK  status: ('A' for Active; 'I' for Inactive)
REMARK    1  A    between atoms: C_6  and  C_7 
REMARK    2  A    between atoms: C_7  and  O_8 
REMARK    3  A    between atoms: O_8  and  C_9 
REMARK    4  A    between atoms: C_23  and  O_24 
REMARK    5  A    between atoms: C_23  and  O_25 
ROOT
ATOM      1  N           0     138.812 130.759 145.491  0.00  0.00    -0.235 N 
ATOM      2  H           0     138.938 130.071 146.164  0.00  0.00     0.174 HD
ATOM      3  H           0     139.562 131.047 144.947  0.00  0.00     0.174 HD
ATOM      4  C           0     137.635 131.291 145.315  0.00  0.00     0.672 C 
ATOM      5  N           0     136.535 130.908 146.062  0.00  0.00    -0.218 N 
ATOM      6  C           0     135.475 131.888 146.283  0.00  0.00     0.151 C 
ATOM      7  C           0     135.001 132.538 144.998  0.00  0.00     0.180 C 
ATOM      8  N           0     134.123 131.596 144.272  0.00  0.00    -0.216 N 
ATOM      9  C           0     134.414 131.705 142.934  0.00  0.00     0.670 C 
ATOM     10  N           0     133.619 131.313 141.977  0.00  0.00    -0.235 N 
ATOM     11  H           0     132.761 130.916 142.192  0.00  0.00     0.174 HD
ATOM     12  H           0     133.886 131.420 141.052  0.00  0.00     0.174 HD
ATOM     13  C           0     136.114 132.837 144.005  0.00  0.00     0.217 C 
ATOM     14  N           0     135.645 132.277 142.728  0.00  0.00    -0.191 N 
ATOM     15  N           0     137.410 132.269 144.382  0.00  0.00    -0.183 N 
ATOM     16  C           0     138.406 133.014 143.592  0.00  0.00     0.150 C 
ATOM     17  C           0     137.879 134.469 143.583  0.00  0.00     0.093 C 
ATOM     18  C           0     136.359 134.349 143.855  0.00  0.00     0.209 C 
ATOM     19  H           0     136.469 130.012 146.428  0.00  0.00     0.178 HD
ATOM     20  H           0     133.461 131.007 144.668  0.00  0.00     0.178 HD
ATOM     21  H           0     136.122 132.309 141.884  0.00  0.00     0.180 HD
ENDROOT
BRANCH   6  22
ATOM     22  C           0     135.998 132.977 147.222  0.00  0.00     0.206 C 
BRANCH  22  23
ATOM     23  O           0     135.258 132.936 148.470  0.00  0.00    -0.320 OA
BRANCH  23  24
ATOM     24  C           0     135.120 131.776 149.131  0.00  0.00     0.254 C 
ATOM     25  C           0     133.754 131.318 149.572  0.00  0.00     0.126 C 
ATOM     26  O           0     136.091 131.100 149.375  0.00  0.00    -0.266 OA
ENDBRANCH  23  24
ENDBRANCH  22  23
ENDBRANCH   6  22
BRANCH  18  27
ATOM     27  O           0     135.613 134.872 142.756  0.00  0.00    -0.362 OA
ATOM     28  H           0     136.251 135.098 142.067  0.00  0.00     0.213 HD
ENDBRANCH  18  27
BRANCH  18  29
ATOM     29  O           0     136.014 135.029 145.063  0.00  0.00    -0.362 OA
ATOM     30  H           0     136.767 134.933 145.662  0.00  0.00     0.213 HD
ENDBRANCH  18  29
TORSDOF 5
ENDMDL
MODEL 7
REMARK VINA RESULT:      -6.2      2.867      5.485
REMARK  5 active torsions:
REMARK  status: ('A' for Active; 'I' for Inactive)
REMARK    1  A    between atoms: C_6  and  C_7 
REMARK    2  A    between atoms: C_7  and  O_8 
REMARK    3  A    between atoms: O_8  and  C_9 
REMARK    4  A    between atoms: C_23  and  O_24 
REMARK    5  A    between atoms: C_23  and  O_25 
ROOT
ATOM      1  N           0     135.086 129.574 145.930  0.00  0.00    -0.235 N 
ATOM      2  H           0     134.773 129.083 145.153  0.00  0.00     0.174 HD
ATOM      3  H           0     134.847 129.274 146.820  0.00  0.00     0.174 HD
ATOM      4  C           0     135.833 130.631 145.775  0.00  0.00     0.672 C 
ATOM      5  N           0     136.206 131.093 144.525  0.00  0.00    -0.218 N 
ATOM      6  C           0     136.468 132.520 144.366  0.00  0.00     0.151 C 
ATOM      7  C           0     137.437 133.057 145.403  0.00  0.00     0.180 C 
ATOM      8  N           0     138.812 132.655 145.037  0.00  0.00    -0.216 N 
ATOM      9  C           0     139.467 132.315 146.195  0.00  0.00     0.670 C 
ATOM     10  N           0     140.764 132.263 146.314  0.00  0.00    -0.235 N 
ATOM     11  H           0     141.330 132.473 145.554  0.00  0.00     0.174 HD
ATOM     12  H           0     141.164 132.016 147.162  0.00  0.00     0.174 HD
ATOM     13  C           0     137.245 132.472 146.794  0.00  0.00     0.217 C 
ATOM     14  N           0     138.588 132.037 147.212  0.00  0.00    -0.191 N 
ATOM     15  N           0     136.296 131.358 146.840  0.00  0.00    -0.183 N 
ATOM     16  C           0     135.908 131.236 148.257  0.00  0.00     0.150 C 
ATOM     17  C           0     135.811 132.698 148.756  0.00  0.00     0.093 C 
ATOM     18  C           0     136.700 133.515 147.785  0.00  0.00     0.209 C 
ATOM     19  H           0     136.292 130.484 143.774  0.00  0.00     0.178 HD
ATOM     20  H           0     139.184 132.636 144.140  0.00  0.00     0.178 HD
ATOM     21  H           0     138.813 131.628 148.061  0.00  0.00     0.180 HD
ENDROOT
BRANCH   6  22
ATOM     22  C           0     135.147 133.282 144.486  0.00  0.00     0.206 C 
BRANCH  22  23
ATOM     23  O           0     135.380 134.696 144.256  0.00  0.00    -0.320 OA
BRANCH  23  24
ATOM     24  C           0     134.735 135.330 143.264  0.00  0.00     0.254 C 
ATOM     25  C           0     133.964 134.539 142.239  0.00  0.00     0.126 C 
ATOM     26  O           0     134.774 136.535 143.193  0.00  0.00    -0.266 OA
ENDBRANCH  23  24
ENDBRANCH  22  23
ENDBRANCH   6  22
BRANCH  18  27
ATOM     27  O           0     137.770 134.140 148.495  0.00  0.00    -0.362 OA
ATOM     28  H           0     138.559 133.603 148.342  0.00  0.00     0.213 HD
ENDBRANCH  18  27
BRANCH  18  29
ATOM     29  O           0     135.918 134.493 147.096  0.00  0.00    -0.362 OA
ATOM     30  H           0     136.431 134.766 146.323  0.00  0.00     0.213 HD
ENDBRANCH  18  29
TORSDOF 5
ENDMDL
MODEL 8
REMARK VINA RESULT:      -6.1      3.966      6.126
REMARK  5 active torsions:
REMARK  status: ('A' for Active; 'I' for Inactive)
REMARK    1  A    between atoms: C_6  and  C_7 
REMARK    2  A    between atoms: C_7  and  O_8 
REMARK    3  A    between atoms: O_8  and  C_9 
REMARK    4  A    between atoms: C_23  and  O_24 
REMARK    5  A    between atoms: C_23  and  O_25 
ROOT
ATOM      1  N           0     134.353 132.066 149.445  0.00  0.00    -0.235 N 
ATOM      2  H           0     133.921 131.763 150.259  0.00  0.00     0.174 HD
ATOM      3  H           0     134.255 132.988 149.159  0.00  0.00     0.174 HD
ATOM      4  C           0     135.071 131.237 148.740  0.00  0.00     0.672 C 
ATOM      5  N           0     135.246 129.915 149.111  0.00  0.00    -0.218 N 
ATOM      6  C           0     135.485 128.929 148.061  0.00  0.00     0.151 C 
ATOM      7  C           0     136.605 129.334 147.122  0.00  0.00     0.180 C 
ATOM      8  N           0     137.905 129.098 147.786  0.00  0.00    -0.216 N 
ATOM      9  C           0     138.731 130.147 147.464  0.00  0.00     0.670 C 
ATOM     10  N           0     140.031 130.111 147.559  0.00  0.00    -0.235 N 
ATOM     11  H           0     140.473 129.306 147.874  0.00  0.00     0.174 HD
ATOM     12  H           0     140.557 130.887 147.314  0.00  0.00     0.174 HD
ATOM     13  C           0     136.631 130.818 146.788  0.00  0.00     0.217 C 
ATOM     14  N           0     138.020 131.238 147.029  0.00  0.00    -0.191 N 
ATOM     15  N           0     135.696 131.618 147.582  0.00  0.00    -0.183 N 
ATOM     16  C           0     135.534 132.879 146.837  0.00  0.00     0.150 C 
ATOM     17  C           0     135.521 132.449 145.351  0.00  0.00     0.093 C 
ATOM     18  C           0     136.251 131.082 145.321  0.00  0.00     0.209 C 
ATOM     19  H           0     135.211 129.651 150.044  0.00  0.00     0.178 HD
ATOM     20  H           0     138.133 128.340 148.348  0.00  0.00     0.178 HD
ATOM     21  H           0     138.374 132.131 146.900  0.00  0.00     0.180 HD
ENDROOT
BRANCH   6  22
ATOM     22  C           0     134.202 128.752 147.248  0.00  0.00     0.206 C 
BRANCH  22  23
ATOM     23  O           0     133.378 127.726 147.862  0.00  0.00    -0.320 OA
BRANCH  23  24
ATOM     24  C           0     132.104 127.994 148.188  0.00  0.00     0.254 C 
ATOM     25  C           0     131.796 128.809 149.418  0.00  0.00     0.126 C 
ATOM     26  O           0     131.203 127.581 147.497  0.00  0.00    -0.266 OA
ENDBRANCH  23  24
ENDBRANCH  22  23
ENDBRANCH   6  22
BRANCH  18  27
ATOM     27  O           0     137.421 131.159 144.505  0.00  0.00    -0.362 OA
ATOM     28  H           0     138.114 130.665 144.962  0.00  0.00     0.213 HD
ENDBRANCH  18  27
BRANCH  18  29
ATOM     29  O           0     135.375 130.060 144.843  0.00  0.00    -0.362 OA
ATOM     30  H           0     135.897 129.496 144.256  0.00  0.00     0.213 HD
ENDBRANCH  18  29
TORSDOF 5
ENDMDL
MODEL 9
REMARK VINA RESULT:      -6.1      2.255      5.549
REMARK  5 active torsions:
REMARK  status: ('A' for Active; 'I' for Inactive)
REMARK    1  A    between atoms: C_6  and  C_7 
REMARK    2  A    between atoms: C_7  and  O_8 
REMARK    3  A    between atoms: O_8  and  C_9 
REMARK    4  A    between atoms: C_23  and  O_24 
REMARK    5  A    between atoms: C_23  and  O_25 
ROOT
ATOM      1  N           0     136.286 134.814 148.023  0.00  0.00    -0.235 N 
ATOM      2  H           0     135.487 135.360 147.959  0.00  0.00     0.174 HD
ATOM      3  H           0     136.959 135.018 148.690  0.00  0.00     0.174 HD
ATOM      4  C           0     136.452 133.804 147.216  0.00  0.00     0.672 C 
ATOM      5  N           0     135.517 133.470 146.251  0.00  0.00    -0.218 N 
ATOM      6  C           0     135.983 132.804 145.039  0.00  0.00     0.151 C 
ATOM      7  C           0     136.848 131.593 145.331  0.00  0.00     0.180 C 
ATOM      8  N           0     135.984 130.467 145.745  0.00  0.00    -0.216 N 
ATOM      9  C           0     136.624 129.806 146.765  0.00  0.00     0.670 C 
ATOM     10  N           0     136.353 128.584 147.129  0.00  0.00    -0.235 N 
ATOM     11  H           0     135.660 128.083 146.669  0.00  0.00     0.174 HD
ATOM     12  H           0     136.844 128.175 147.857  0.00  0.00     0.174 HD
ATOM     13  C           0     137.795 131.776 146.507  0.00  0.00     0.217 C 
ATOM     14  N           0     137.584 130.591 147.353  0.00  0.00    -0.191 N 
ATOM     15  N           0     137.566 133.008 147.264  0.00  0.00    -0.183 N 
ATOM     16  C           0     138.805 133.229 148.031  0.00  0.00     0.150 C 
ATOM     17  C           0     139.936 132.807 147.064  0.00  0.00     0.093 C 
ATOM     18  C           0     139.265 131.841 146.055  0.00  0.00     0.209 C 
ATOM     19  H           0     134.577 133.673 146.379  0.00  0.00     0.178 HD
ATOM     20  H           0     135.120 130.237 145.365  0.00  0.00     0.178 HD
ATOM     21  H           0     138.046 130.395 148.183  0.00  0.00     0.180 HD
ENDROOT
BRANCH   6  22
ATOM     22  C           0     136.795 133.800 144.209  0.00  0.00     0.206 C 
BRANCH  22  23
ATOM     23  O           0     136.128 134.030 142.940  0.00  0.00    -0.320 OA
BRANCH  23  24
ATOM     24  C           0     134.934 134.640 142.909  0.00  0.00     0.254 C 
ATOM     25  C           0     134.806 136.072 143.362  0.00  0.00     0.126 C 
ATOM     26  O           0     133.959 134.041 142.520  0.00  0.00    -0.266 OA
ENDBRANCH  23  24
ENDBRANCH  22  23
ENDBRANCH   6  22
BRANCH  18  27
ATOM     27  O           0     139.869 130.549 146.123  0.00  0.00    -0.362 OA
ATOM     28  H           0     139.764 130.145 145.252  0.00  0.00     0.213 HD
ENDBRANCH  18  27
BRANCH  18  29
ATOM     29  O           0     139.353 132.366 144.729  0.00  0.00    -0.362 OA
ATOM     30  H           0     138.448 132.435 144.395  0.00  0.00     0.213 HD
ENDBRANCH  18  29
TORSDOF 5
ENDMDL
