# created with PyMOL 2.3.4
@<TRIPOS>MOLECULE
ligand_out_0001
30 32 1                 
SMALL
USER_CHARGES
@<TRIPOS>ATOM
1	   N	134.904	131.971	146.619	N.3	1	UNK0	-0.235	
2	   N	136.411	133.689	146.059	N.3	1	UNK0	-0.218	
3	   N	136.204	135.805	143.829	N.3	1	UNK0	-0.216	
4	   N	134.414	136.898	142.733	N.3	1	UNK0	-0.235	
5	   N	134.506	134.549	142.990	N.3	1	UNK0	-0.191	
6	   N	135.118	132.680	144.399	N.3	1	UNK0	-0.183	
7	   C	135.452	132.747	145.727	C.3	1	UNK0	0.672	
8	   C	137.396	134.057	145.047	C.3	1	UNK0	0.151	
9	   C	136.762	134.440	143.724	C.3	1	UNK0	0.180	
10	   C	135.005	135.816	143.158	C.3	1	UNK0	0.670	
11	   C	135.563	133.586	143.339	C.3	1	UNK0	0.217	
12	   C	134.296	131.662	143.723	C.3	1	UNK0	0.150	
13	   C	135.028	131.404	142.384	C.3	1	UNK0	0.093	
14	   C	135.867	132.682	142.131	C.3	1	UNK0	0.209	
15	   C	138.335	132.872	144.817	C.2	1	UNK0	0.206	
16	   C	138.929	131.235	146.499	C.2	1	UNK0	0.254	
17	   C	140.206	130.517	146.851	C.3	1	UNK0	0.126	
18	   O	138.970	132.506	146.071	O.2	1	UNK0	-0.320	
19	   O	137.868	130.666	146.602	O.co2	1	UNK0	-0.266	
20	   O	135.459	133.313	140.916	O.2	1	UNK0	-0.362	
21	   O	137.259	132.364	142.087	O.2	1	UNK0	-0.362	
22	   H	135.165	132.043	147.551	 H	1	UNK0	0.174	
23	   H	134.231	131.325	146.354	 H	1	UNK0	0.174	
24	   H	134.823	137.765	142.884	 H	1	UNK0	0.174	
25	   H	133.569	136.836	142.264	 H	1	UNK0	0.174	
26	   H	136.426	134.093	146.941	 H	1	UNK0	0.178	
27	   H	136.610	136.557	144.290	 H	1	UNK0	0.178	
28	   H	133.611	134.326	142.691	 H	1	UNK0	0.180	
29	   H	135.335	132.610	140.264	 H	1	UNK0	0.213	
30	   H	137.533	132.182	142.996	 H	1	UNK0	0.213	
@<TRIPOS>BOND
1 1 7 1
2 1 22 1
3 1 23 1
4 2 8 1
5 2 26 1
6 3 10 1
7 3 27 1
8 4 24 1
9 4 25 1
10 5 28 1
11 6 12 1
12 2 7 1
13 6 7 1
14 8 9 1
15 8 15 1
16 3 9 1
17 9 11 1
18 4 10 1
19 5 10 1
20 5 11 1
21 6 11 1
22 11 14 1
23 12 13 1
24 13 14 1
25 14 20 2
26 14 21 2
27 15 18 2
28 16 17 1
29 16 19 2
30 16 18 2
31 20 29 1
32 21 30 1
@<TRIPOS>SUBSTRUCTURE
1	UNK0	1	GROUP	1 ****	UNK
