# created with PyMOL 2.3.4
@<TRIPOS>MOLECULE
ligand_out_0001
93 101 1                
SMALL
USER_CHARGES
@<TRIPOS>ATOM
1	   N	132.032	134.617	149.100	N.pl3	1	UNK0	-0.281	
2	   N	131.455	130.705	151.100	N.pl3	1	UNK0	-0.359	
3	   N	133.816	129.607	150.540	N.pl3	1	UNK0	-0.335	
4	   N	138.690	128.788	147.855	N.3	1	UNK0	-0.218	
5	   N	140.984	129.267	148.066	N.3	1	UNK0	-0.235	
6	   N	139.447	130.985	147.658	N.3	1	UNK0	-0.183	
7	   N	138.090	131.858	145.856	N.3	1	UNK0	-0.191	
8	   N	136.559	130.204	146.137	N.3	1	UNK0	-0.216	
9	   N	136.590	131.388	144.089	N.3	1	UNK0	-0.235	
10	   N	132.936	133.516	143.180	N.3	1	UNK0	-0.135	
11	   N	133.064	133.438	141.902	N.3	1	UNK0	-0.066	
12	   N	134.227	133.861	141.546	N.3	1	UNK0	-0.261	
13	   N	133.705	135.539	137.397	N.pl3	1	UNK0	-0.361	
14	   N	132.410	136.212	131.702	N.3	1	UNK0	-0.349	
15	   N	130.222	127.766	132.333	N.3	1	UNK0	-0.353	
16	   C	133.370	135.347	145.677	C.3	1	UNK0	0.051	
17	   C	133.121	135.117	147.146	C.3	1	UNK0	0.016	
18	   C	134.018	135.240	148.139	C.3	1	UNK0	0.087	
19	   C	133.309	134.915	149.396	C.2	1	UNK0	0.251	
20	   C	131.843	134.711	147.771	C.2	1	UNK0	0.256	
21	   C	131.004	134.242	150.074	C.3	1	UNK0	0.145	
22	   C	131.561	133.174	151.019	C.3	1	UNK0	0.123	
23	   C	131.487	131.825	150.351	C.2	1	UNK0	0.219	
24	   C	131.382	129.393	150.451	C.3	1	UNK0	0.142	
25	   C	132.708	128.655	150.643	C.3	1	UNK0	0.144	
26	   C	135.059	129.168	150.260	C.2	1	UNK0	0.360	
27	   C	137.391	129.587	149.750	C.2	1	UNK0	0.208	
28	   C	137.377	129.292	148.248	C.3	1	UNK0	0.151	
29	   C	139.760	129.667	147.866	C.3	1	UNK0	0.672	
30	   C	138.138	131.528	147.289	C.3	1	UNK0	0.217	
31	   C	140.326	132.158	147.812	C.3	1	UNK0	0.150	
32	   C	136.989	130.556	147.507	C.3	1	UNK0	0.180	
33	   C	137.976	132.806	148.128	C.3	1	UNK0	0.209	
34	   C	137.052	131.164	145.287	C.3	1	UNK0	0.670	
35	   C	139.427	133.227	148.478	C.3	1	UNK0	0.093	
36	   C	134.343	134.288	145.154	C.3	1	UNK0	0.067	
37	   C	134.061	134.022	143.698	C.3	1	UNK0	0.076	
38	   C	134.898	134.244	142.657	C.3	1	UNK0	0.142	
39	   C	134.737	133.918	140.174	C.3	1	UNK0	0.154	
40	   C	133.563	133.885	139.192	C.3	1	UNK0	0.041	
41	   C	133.219	135.311	138.760	C.3	1	UNK0	0.124	
42	   C	132.953	135.171	136.342	C.2	1	UNK0	0.217	
43	   C	133.454	135.406	134.940	C.3	1	UNK0	0.103	
44	   C	134.308	134.216	134.496	C.3	1	UNK0	0.009	
45	   C	134.797	134.444	133.066	C.3	1	UNK0	0.002	
46	   C	134.624	135.920	132.696	C.3	1	UNK0	0.020	
47	   C	133.830	136.030	131.394	C.3	1	UNK0	0.129	
48	   C	131.867	137.418	132.022	C.3	1	UNK0	0.042	
49	   C	130.494	137.283	132.259	C.3	1	UNK0	-0.017	
50	   C	132.446	138.691	132.130	C.3	1	UNK0	0.030	
51	   C	130.195	135.815	132.065	C.3	1	UNK0	0.024	
52	   C	129.727	138.369	132.596	C.3	1	UNK0	0.010	
53	   C	131.545	135.230	131.701	C.3	1	UNK0	0.024	
54	   C	129.195	135.614	130.923	C.3	1	UNK0	0.027	
55	   C	129.668	135.191	133.358	C.3	1	UNK0	0.027	
56	   C	131.819	133.884	131.417	C.3	1	UNK0	0.026	
57	   C	130.310	139.623	132.697	C.3	1	UNK0	0.001	
58	   C	131.666	139.776	132.465	C.3	1	UNK0	0.002	
59	   C	130.819	132.956	131.480	C.3	1	UNK0	0.002	
60	   C	130.686	132.146	132.618	C.3	1	UNK0	0.000	
61	   C	129.688	131.220	132.682	C.3	1	UNK0	0.002	
62	   C	129.719	130.093	131.839	C.3	1	UNK0	0.026	
63	   C	130.565	129.071	132.107	C.3	1	UNK0	0.024	
64	   C	132.073	129.150	132.207	C.3	1	UNK0	0.024	
65	   C	132.499	127.735	132.524	C.3	1	UNK0	-0.017	
66	   C	132.678	129.606	130.878	C.3	1	UNK0	0.027	
67	   C	132.483	130.097	133.337	C.3	1	UNK0	0.027	
68	   C	131.339	126.971	132.578	C.3	1	UNK0	0.041	
69	   C	133.732	127.158	132.736	C.3	1	UNK0	0.010	
70	   C	131.441	125.608	132.851	C.3	1	UNK0	0.030	
71	   C	128.844	127.264	132.318	C.3	1	UNK0	0.156	
72	   C	132.677	125.034	133.064	C.3	1	UNK0	0.002	
73	   C	133.824	125.805	133.007	C.3	1	UNK0	0.001	
74	   O	133.799	134.919	150.507	O.2	1	UNK0	-0.268	
75	   O	130.800	134.503	147.186	O.2	1	UNK0	-0.267	
76	   O	131.455	131.748	149.142	O.2	1	UNK0	-0.274	
77	   O	135.261	127.981	150.092	O.co2	1	UNK0	-0.239	
78	   O	136.077	130.044	150.166	O.2	1	UNK0	-0.302	
79	   O	137.332	133.829	147.365	O.2	1	UNK0	-0.362	
80	   O	137.236	132.530	149.319	O.2	1	UNK0	-0.362	
81	   O	131.873	134.649	136.520	O.2	1	UNK0	-0.274	
82	   H	131.479	130.766	152.067	 H	1	UNK0	0.162	
83	   H	133.655	130.555	150.675	 H	1	UNK0	0.164	
84	   H	138.809	127.862	147.591	 H	1	UNK0	0.178	
85	   H	141.169	128.327	148.214	 H	1	UNK0	0.174	
86	   H	141.711	129.910	148.064	 H	1	UNK0	0.174	
87	   H	136.026	129.433	145.883	 H	1	UNK0	0.178	
88	   H	135.852	130.860	143.747	 H	1	UNK0	0.174	
89	   H	136.984	132.084	143.541	 H	1	UNK0	0.174	
90	   H	138.688	132.465	145.393	 H	1	UNK0	0.180	
91	   H	136.382	133.740	147.524	 H	1	UNK0	0.213	
92	   H	136.601	131.835	149.098	 H	1	UNK0	0.213	
93	   H	134.570	135.957	137.254	 H	1	UNK0	0.162	
@<TRIPOS>BOND
1 1 20 1
2 1 21 1
3 2 24 1
4 2 82 1
5 3 26 1
6 3 83 1
7 4 29 1
8 4 84 1
9 5 85 1
10 5 86 1
11 6 30 1
12 6 31 1
13 7 34 1
14 7 90 1
15 8 34 1
16 8 87 1
17 9 88 1
18 9 89 1
19 10 11 1
20 11 12 1
21 12 38 1
22 12 39 1
23 13 42 1
24 13 93 1
25 14 48 1
26 14 53 1
27 15 71 1
28 16 17 1
29 16 36 1
30 17 18 1
31 17 20 1
32 18 19 1
33 1 19 1
34 19 74 2
35 20 75 2
36 21 22 1
37 22 23 1
38 2 23 1
39 23 76 2
40 24 25 1
41 3 25 1
42 26 77 2
43 26 78 2
44 27 28 1
45 4 28 1
46 28 32 1
47 5 29 1
48 6 29 1
49 7 30 1
50 30 32 1
51 30 33 1
52 31 35 1
53 8 32 1
54 33 35 1
55 33 79 2
56 33 80 2
57 9 34 1
58 36 37 1
59 10 37 1
60 37 38 1
61 39 40 1
62 40 41 1
63 13 41 1
64 42 43 1
65 42 81 2
66 43 44 1
67 44 45 1
68 45 46 1
69 46 47 1
70 14 47 1
71 48 49 1
72 48 50 1
73 49 51 1
74 49 52 1
75 50 58 1
76 51 53 1
77 51 54 1
78 51 55 1
79 52 57 1
80 53 56 1
81 56 59 1
82 57 58 1
83 59 60 1
84 60 61 1
85 61 62 1
86 62 63 1
87 15 63 1
88 63 64 1
89 64 65 1
90 64 66 1
91 64 67 1
92 65 68 1
93 65 69 1
94 15 68 1
95 68 70 1
96 69 73 1
97 70 72 1
98 72 73 1
99 27 78 2
100 79 91 1
101 80 92 1
@<TRIPOS>SUBSTRUCTURE
1	UNK0	1	GROUP	1 ****	UNK
