# created with PyMOL 2.3.4
@<TRIPOS>MOLECULE
ligand_out_0001
32 34 1                 
SMALL
USER_CHARGES
@<TRIPOS>ATOM
1	   N	135.313	136.788	143.262	N.3	1	UNK0	-0.235	
2	   N	133.937	134.883	143.138	N.3	1	UNK0	-0.218	
3	   N	134.095	132.263	144.749	N.3	1	UNK0	-0.216	
4	   N	134.849	131.683	146.915	N.3	1	UNK0	-0.235	
5	   N	136.153	132.960	145.412	N.3	1	UNK0	-0.191	
6	   N	136.191	134.661	143.692	N.3	1	UNK0	-0.183	
7	   N	133.534	136.128	139.893	N.pl3	1	UNK0	-0.346	
8	   C	135.157	135.498	143.363	C.3	1	UNK0	0.672	
9	   C	133.934	133.506	142.655	C.3	1	UNK0	0.151	
10	   C	134.804	132.591	143.495	C.3	1	UNK0	0.180	
11	   C	135.022	132.266	145.763	C.3	1	UNK0	0.670	
12	   C	136.103	133.226	143.964	C.3	1	UNK0	0.217	
13	   C	137.625	134.989	143.789	C.3	1	UNK0	0.150	
14	   C	138.341	133.771	143.156	C.3	1	UNK0	0.093	
15	   C	137.330	132.602	143.276	C.3	1	UNK0	0.209	
16	   C	134.447	133.488	141.214	C.2	1	UNK0	0.208	
17	   C	133.518	134.858	139.443	C.2	1	UNK0	0.358	
18	   O	133.367	133.838	140.310	O.2	1	UNK0	-0.302	
19	   O	133.640	134.632	138.255	O.co2	1	UNK0	-0.239	
20	   O	137.875	131.552	144.076	O.2	1	UNK0	-0.362	
21	   O	136.977	132.113	141.980	O.2	1	UNK0	-0.362	
22	   H	134.561	137.351	143.023	 H	1	UNK0	0.174	
23	   H	136.183	137.185	143.430	 H	1	UNK0	0.174	
24	   H	134.024	131.207	147.099	 H	1	UNK0	0.174	
25	   H	135.546	131.724	147.588	 H	1	UNK0	0.174	
26	   H	133.106	135.356	143.299	 H	1	UNK0	0.178	
27	   H	133.147	132.078	144.841	 H	1	UNK0	0.178	
28	   H	136.864	133.228	146.014	 H	1	UNK0	0.180	
29	   H	133.437	136.309	140.841	 H	1	UNK0	0.161	
30	   H	133.642	136.863	139.268	 H	1	UNK0	0.161	
31	   H	137.194	131.305	144.716	 H	1	UNK0	0.213	
32	   H	136.499	131.283	142.116	 H	1	UNK0	0.213	
@<TRIPOS>BOND
1 1 8 1
2 1 22 1
3 1 23 1
4 2 9 1
5 2 26 1
6 3 11 1
7 3 27 1
8 4 24 1
9 4 25 1
10 5 28 1
11 6 13 1
12 7 29 1
13 7 30 1
14 2 8 1
15 6 8 1
16 9 10 1
17 9 16 1
18 3 10 1
19 10 12 1
20 4 11 1
21 5 11 1
22 5 12 1
23 6 12 1
24 12 15 1
25 13 14 1
26 14 15 1
27 15 20 2
28 15 21 2
29 16 18 2
30 7 17 1
31 17 19 2
32 17 18 2
33 20 31 1
34 21 32 1
@<TRIPOS>SUBSTRUCTURE
1	UNK0	1	GROUP	1 ****	UNK
