MODEL 1
REMARK VINA RESULT:      -8.1      0.000      0.000
REMARK  5 active torsions:
REMARK  status: ('A' for Active; 'I' for Inactive)
REMARK    1  A    between atoms: C_6  and  C_7 
REMARK    2  A    between atoms: C_7  and  O_8 
REMARK    3  A    between atoms: O_8  and  C_9 
REMARK       I    between atoms: C_9  and  N_10 
REMARK    4  A    between atoms: C_23  and  O_24 
REMARK    5  A    between atoms: C_23  and  O_25 
ROOT
ATOM      1  N           0     135.313 136.788 143.262  0.00  0.00    -0.235 N 
ATOM      2  H           0     134.561 137.351 143.023  0.00  0.00     0.174 HD
ATOM      3  H           0     136.183 137.185 143.430  0.00  0.00     0.174 HD
ATOM      4  C           0     135.157 135.498 143.363  0.00  0.00     0.672 C 
ATOM      5  N           0     133.937 134.883 143.138  0.00  0.00    -0.218 N 
ATOM      6  C           0     133.934 133.506 142.655  0.00  0.00     0.151 C 
ATOM      7  C           0     134.804 132.591 143.495  0.00  0.00     0.180 C 
ATOM      8  N           0     134.095 132.263 144.749  0.00  0.00    -0.216 N 
ATOM      9  C           0     135.022 132.266 145.763  0.00  0.00     0.670 C 
ATOM     10  N           0     134.849 131.683 146.915  0.00  0.00    -0.235 N 
ATOM     11  H           0     134.024 131.207 147.099  0.00  0.00     0.174 HD
ATOM     12  H           0     135.546 131.724 147.588  0.00  0.00     0.174 HD
ATOM     13  C           0     136.103 133.226 143.964  0.00  0.00     0.217 C 
ATOM     14  N           0     136.153 132.960 145.412  0.00  0.00    -0.191 N 
ATOM     15  N           0     136.191 134.661 143.692  0.00  0.00    -0.183 N 
ATOM     16  C           0     137.625 134.989 143.789  0.00  0.00     0.150 C 
ATOM     17  C           0     138.341 133.771 143.156  0.00  0.00     0.093 C 
ATOM     18  C           0     137.330 132.602 143.276  0.00  0.00     0.209 C 
ATOM     19  H           0     133.106 135.356 143.299  0.00  0.00     0.178 HD
ATOM     20  H           0     133.147 132.078 144.841  0.00  0.00     0.178 HD
ATOM     21  H           0     136.864 133.228 146.014  0.00  0.00     0.180 HD
ENDROOT
BRANCH   6  22
ATOM     22  C           0     134.447 133.488 141.214  0.00  0.00     0.208 C 
BRANCH  22  23
ATOM     23  O           0     133.367 133.838 140.310  0.00  0.00    -0.302 OA
BRANCH  23  24
ATOM     24  C           0     133.518 134.858 139.443  0.00  0.00     0.358 C 
ATOM     25  N           0     133.534 136.128 139.893  0.00  0.00    -0.346 N 
ATOM     26  H           0     133.437 136.309 140.841  0.00  0.00     0.161 HD
ATOM     27  H           0     133.642 136.863 139.268  0.00  0.00     0.161 HD
ATOM     28  O           0     133.640 134.632 138.255  0.00  0.00    -0.239 OA
ENDBRANCH  23  24
ENDBRANCH  22  23
ENDBRANCH   6  22
BRANCH  18  29
ATOM     29  O           0     137.875 131.552 144.076  0.00  0.00    -0.362 OA
ATOM     30  H           0     137.194 131.305 144.716  0.00  0.00     0.213 HD
ENDBRANCH  18  29
BRANCH  18  31
ATOM     31  O           0     136.977 132.113 141.980  0.00  0.00    -0.362 OA
ATOM     32  H           0     136.499 131.283 142.116  0.00  0.00     0.213 HD
ENDBRANCH  18  31
TORSDOF 5
ENDMDL
MODEL 2
REMARK VINA RESULT:      -8.0      2.156      5.725
REMARK  5 active torsions:
REMARK  status: ('A' for Active; 'I' for Inactive)
REMARK    1  A    between atoms: C_6  and  C_7 
REMARK    2  A    between atoms: C_7  and  O_8 
REMARK    3  A    between atoms: O_8  and  C_9 
REMARK       I    between atoms: C_9  and  N_10 
REMARK    4  A    between atoms: C_23  and  O_24 
REMARK    5  A    between atoms: C_23  and  O_25 
ROOT
ATOM      1  N           0     135.493 132.637 147.077  0.00  0.00    -0.235 N 
ATOM      2  H           0     135.806 132.870 147.965  0.00  0.00     0.174 HD
ATOM      3  H           0     134.864 131.907 146.960  0.00  0.00     0.174 HD
ATOM      4  C           0     135.915 133.305 146.040  0.00  0.00     0.672 C 
ATOM      5  N           0     136.809 134.357 146.155  0.00  0.00    -0.218 N 
ATOM      6  C           0     137.693 134.639 145.029  0.00  0.00     0.151 C 
ATOM      7  C           0     136.945 134.764 143.716  0.00  0.00     0.180 C 
ATOM      8  N           0     136.280 136.082 143.659  0.00  0.00    -0.216 N 
ATOM      9  C           0     135.046 135.900 143.085  0.00  0.00     0.670 C 
ATOM     10  N           0     134.338 136.854 142.549  0.00  0.00    -0.235 N 
ATOM     11  H           0     134.679 137.762 142.539  0.00  0.00     0.174 HD
ATOM     12  H           0     133.473 136.656 142.160  0.00  0.00     0.174 HD
ATOM     13  C           0     135.805 133.772 143.553  0.00  0.00     0.217 C 
ATOM     14  N           0     134.649 134.587 143.145  0.00  0.00    -0.191 N 
ATOM     15  N           0     135.507 133.010 144.766  0.00  0.00    -0.183 N 
ATOM     16  C           0     134.734 131.840 144.312  0.00  0.00     0.150 C 
ATOM     17  C           0     135.401 131.435 142.975  0.00  0.00     0.093 C 
ATOM     18  C           0     136.109 132.719 142.473  0.00  0.00     0.209 C 
ATOM     19  H           0     136.845 134.892 146.963  0.00  0.00     0.178 HD
ATOM     20  H           0     136.648 136.925 143.970  0.00  0.00     0.178 HD
ATOM     21  H           0     133.759 134.253 142.950  0.00  0.00     0.180 HD
ENDROOT
BRANCH   6  22
ATOM     22  C           0     138.715 133.506 144.908  0.00  0.00     0.208 C 
BRANCH  22  23
ATOM     23  O           0     139.868 133.804 145.738  0.00  0.00    -0.302 OA
BRANCH  23  24
ATOM     24  C           0     139.886 133.421 147.029  0.00  0.00     0.358 C 
ATOM     25  N           0     140.711 134.031 147.902  0.00  0.00    -0.346 N 
ATOM     26  H           0     141.293 134.747 147.600  0.00  0.00     0.161 HD
ATOM     27  H           0     140.725 133.755 148.832  0.00  0.00     0.161 HD
ATOM     28  O           0     139.157 132.525 147.407  0.00  0.00    -0.239 OA
ENDBRANCH  23  24
ENDBRANCH  22  23
ENDBRANCH   6  22
BRANCH  18  29
ATOM     29  O           0     135.572 133.122 141.212  0.00  0.00    -0.362 OA
ATOM     30  H           0     135.506 132.324 140.668  0.00  0.00     0.213 HD
ENDBRANCH  18  29
BRANCH  18  31
ATOM     31  O           0     137.518 132.504 142.371  0.00  0.00    -0.362 OA
ATOM     32  H           0     137.861 132.472 143.275  0.00  0.00     0.213 HD
ENDBRANCH  18  31
TORSDOF 5
ENDMDL
MODEL 3
REMARK VINA RESULT:      -7.2      2.451      5.123
REMARK  5 active torsions:
REMARK  status: ('A' for Active; 'I' for Inactive)
REMARK    1  A    between atoms: C_6  and  C_7 
REMARK    2  A    between atoms: C_7  and  O_8 
REMARK    3  A    between atoms: O_8  and  C_9 
REMARK       I    between atoms: C_9  and  N_10 
REMARK    4  A    between atoms: C_23  and  O_24 
REMARK    5  A    between atoms: C_23  and  O_25 
ROOT
ATOM      1  N           0     135.930 134.708 146.930  0.00  0.00    -0.235 N 
ATOM      2  H           0     136.273 135.587 147.156  0.00  0.00     0.174 HD
ATOM      3  H           0     135.553 134.142 147.622  0.00  0.00     0.174 HD
ATOM      4  C           0     135.972 134.289 145.696  0.00  0.00     0.672 C 
ATOM      5  N           0     136.496 135.060 144.673  0.00  0.00    -0.218 N 
ATOM      6  C           0     137.082 134.378 143.523  0.00  0.00     0.151 C 
ATOM      7  C           0     136.158 133.331 142.932  0.00  0.00     0.180 C 
ATOM      8  N           0     135.110 134.001 142.134  0.00  0.00    -0.216 N 
ATOM      9  C           0     133.929 133.337 142.358  0.00  0.00     0.670 C 
ATOM     10  N           0     132.890 133.404 141.574  0.00  0.00    -0.235 N 
ATOM     11  H           0     132.922 133.950 140.773  0.00  0.00     0.174 HD
ATOM     12  H           0     132.086 132.908 141.792  0.00  0.00     0.174 HD
ATOM     13  C           0     135.377 132.536 143.967  0.00  0.00     0.217 C 
ATOM     14  N           0     133.978 132.592 143.511  0.00  0.00    -0.191 N 
ATOM     15  N           0     135.505 133.054 145.329  0.00  0.00    -0.183 N 
ATOM     16  C           0     135.085 131.947 146.208  0.00  0.00     0.150 C 
ATOM     17  C           0     135.654 130.679 145.527  0.00  0.00     0.093 C 
ATOM     18  C           0     135.844 131.072 144.040  0.00  0.00     0.209 C 
ATOM     19  H           0     136.473 136.028 144.719  0.00  0.00     0.178 HD
ATOM     20  H           0     135.233 134.770 141.556  0.00  0.00     0.178 HD
ATOM     21  H           0     133.221 132.173 143.948  0.00  0.00     0.180 HD
ENDROOT
BRANCH   6  22
ATOM     22  C           0     138.381 133.700 143.961  0.00  0.00     0.208 C 
BRANCH  22  23
ATOM     23  O           0     138.757 134.178 145.278  0.00  0.00    -0.302 OA
BRANCH  23  24
ATOM     24  C           0     139.349 133.344 146.155  0.00  0.00     0.358 C 
ATOM     25  N           0     138.995 132.044 146.192  0.00  0.00    -0.346 N 
ATOM     26  H           0     138.313 131.709 145.588  0.00  0.00     0.161 HD
ATOM     27  H           0     139.420 131.443 146.824  0.00  0.00     0.161 HD
ATOM     28  O           0     140.202 133.764 146.911  0.00  0.00    -0.239 OA
ENDBRANCH  23  24
ENDBRANCH  22  23
ENDBRANCH   6  22
BRANCH  18  29
ATOM     29  O           0     135.039 130.244 143.199  0.00  0.00    -0.362 OA
ATOM     30  H           0     134.836 130.763 142.408  0.00  0.00     0.213 HD
ENDBRANCH  18  29
BRANCH  18  31
ATOM     31  O           0     137.221 130.971 143.670  0.00  0.00    -0.362 OA
ATOM     32  H           0     137.597 131.859 143.749  0.00  0.00     0.213 HD
ENDBRANCH  18  31
TORSDOF 5
ENDMDL
MODEL 4
REMARK VINA RESULT:      -7.0      3.273      6.053
REMARK  5 active torsions:
REMARK  status: ('A' for Active; 'I' for Inactive)
REMARK    1  A    between atoms: C_6  and  C_7 
REMARK    2  A    between atoms: C_7  and  O_8 
REMARK    3  A    between atoms: O_8  and  C_9 
REMARK       I    between atoms: C_9  and  N_10 
REMARK    4  A    between atoms: C_23  and  O_24 
REMARK    5  A    between atoms: C_23  and  O_25 
ROOT
ATOM      1  N           0     139.075 130.444 145.951  0.00  0.00    -0.235 N 
ATOM      2  H           0     139.240 129.594 146.389  0.00  0.00     0.174 HD
ATOM      3  H           0     139.815 130.945 145.572  0.00  0.00     0.174 HD
ATOM      4  C           0     137.861 130.911 145.868  0.00  0.00     0.672 C 
ATOM      5  N           0     136.773 130.232 146.388  0.00  0.00    -0.218 N 
ATOM      6  C           0     135.618 131.009 146.826  0.00  0.00     0.151 C 
ATOM      7  C           0     135.136 131.985 145.770  0.00  0.00     0.180 C 
ATOM      8  N           0     134.380 131.248 144.736  0.00  0.00    -0.216 N 
ATOM      9  C           0     134.711 131.788 143.517  0.00  0.00     0.670 C 
ATOM     10  N           0     133.995 131.651 142.437  0.00  0.00    -0.235 N 
ATOM     11  H           0     133.170 131.141 142.463  0.00  0.00     0.174 HD
ATOM     12  H           0     134.287 132.059 141.607  0.00  0.00     0.174 HD
ATOM     13  C           0     136.253 132.662 144.994  0.00  0.00     0.217 C 
ATOM     14  N           0     135.889 132.490 143.577  0.00  0.00    -0.191 N 
ATOM     15  N           0     137.580 132.109 145.264  0.00  0.00    -0.183 N 
ATOM     16  C           0     138.533 133.136 144.805  0.00  0.00     0.150 C 
ATOM     17  C           0     137.871 134.478 145.205  0.00  0.00     0.093 C 
ATOM     18  C           0     136.359 134.161 145.327  0.00  0.00     0.209 C 
ATOM     19  H           0     136.778 129.265 146.458  0.00  0.00     0.178 HD
ATOM     20  H           0     133.761 130.516 144.890  0.00  0.00     0.178 HD
ATOM     21  H           0     136.393 132.818 142.817  0.00  0.00     0.180 HD
ENDROOT
BRANCH   6  22
ATOM     22  C           0     135.998 131.792 148.084  0.00  0.00     0.208 C 
BRANCH  22  23
ATOM     23  O           0     134.803 132.353 148.686  0.00  0.00    -0.302 OA
BRANCH  23  24
ATOM     24  C           0     133.910 131.545 149.291  0.00  0.00     0.358 C 
ATOM     25  N           0     132.594 131.688 149.041  0.00  0.00    -0.346 N 
ATOM     26  H           0     132.289 132.373 148.425  0.00  0.00     0.161 HD
ATOM     27  H           0     131.951 131.107 149.477  0.00  0.00     0.161 HD
ATOM     28  O           0     134.293 130.687 150.062  0.00  0.00    -0.239 OA
ENDBRANCH  23  24
ENDBRANCH  22  23
ENDBRANCH   6  22
BRANCH  18  29
ATOM     29  O           0     135.611 134.938 144.391  0.00  0.00    -0.362 OA
ATOM     30  H           0     135.061 135.544 144.908  0.00  0.00     0.213 HD
ENDBRANCH  18  29
BRANCH  18  31
ATOM     31  O           0     135.904 134.406 146.659  0.00  0.00    -0.362 OA
ATOM     32  H           0     134.995 134.080 146.708  0.00  0.00     0.213 HD
ENDBRANCH  18  31
TORSDOF 5
ENDMDL
MODEL 5
REMARK VINA RESULT:      -7.0      2.441      3.966
REMARK  5 active torsions:
REMARK  status: ('A' for Active; 'I' for Inactive)
REMARK    1  A    between atoms: C_6  and  C_7 
REMARK    2  A    between atoms: C_7  and  O_8 
REMARK    3  A    between atoms: O_8  and  C_9 
REMARK       I    between atoms: C_9  and  N_10 
REMARK    4  A    between atoms: C_23  and  O_24 
REMARK    5  A    between atoms: C_23  and  O_25 
ROOT
ATOM      1  N           0     135.174 130.505 143.346  0.00  0.00    -0.235 N 
ATOM      2  H           0     134.913 130.366 142.422  0.00  0.00     0.174 HD
ATOM      3  H           0     134.885 129.880 144.030  0.00  0.00     0.174 HD
ATOM      4  C           0     135.915 131.528 143.668  0.00  0.00     0.672 C 
ATOM      5  N           0     136.355 132.444 142.729  0.00  0.00    -0.218 N 
ATOM      6  C           0     136.608 133.814 143.164  0.00  0.00     0.151 C 
ATOM      7  C           0     137.505 133.883 144.384  0.00  0.00     0.180 C 
ATOM      8  N           0     138.905 133.645 143.972  0.00  0.00    -0.216 N 
ATOM      9  C           0     139.494 132.867 144.938  0.00  0.00     0.670 C 
ATOM     10  N           0     140.782 132.757 145.105  0.00  0.00    -0.235 N 
ATOM     11  H           0     141.389 133.244 144.525  0.00  0.00     0.174 HD
ATOM     12  H           0     141.133 132.189 145.808  0.00  0.00     0.174 HD
ATOM     13  C           0     137.238 132.799 145.415  0.00  0.00     0.217 C 
ATOM     14  N           0     138.560 132.219 145.706  0.00  0.00    -0.191 N 
ATOM     15  N           0     136.303 131.769 144.960  0.00  0.00    -0.183 N 
ATOM     16  C           0     135.834 131.099 146.187  0.00  0.00     0.150 C 
ATOM     17  C           0     135.688 132.245 147.217  0.00  0.00     0.093 C 
ATOM     18  C           0     136.622 133.370 146.704  0.00  0.00     0.209 C 
ATOM     19  H           0     136.493 132.181 141.805  0.00  0.00     0.178 HD
ATOM     20  H           0     139.330 133.978 143.166  0.00  0.00     0.178 HD
ATOM     21  H           0     138.739 131.504 146.336  0.00  0.00     0.180 HD
ENDROOT
BRANCH   6  22
ATOM     22  C           0     135.271 134.480 143.497  0.00  0.00     0.208 C 
BRANCH  22  23
ATOM     23  O           0     134.390 134.399 142.347  0.00  0.00    -0.302 OA
BRANCH  23  24
ATOM     24  C           0     133.954 135.525 141.750  0.00  0.00     0.358 C 
ATOM     25  N           0     134.264 136.728 142.274  0.00  0.00    -0.346 N 
ATOM     26  H           0     134.801 136.783 143.080  0.00  0.00     0.161 HD
ATOM     27  H           0     133.950 137.539 141.845  0.00  0.00     0.161 HD
ATOM     28  O           0     133.283 135.457 140.740  0.00  0.00    -0.239 OA
ENDBRANCH  23  24
ENDBRANCH  22  23
ENDBRANCH   6  22
BRANCH  18  29
ATOM     29  O           0     137.640 133.650 147.667  0.00  0.00    -0.362 OA
ATOM     30  H           0     138.489 133.521 147.221  0.00  0.00     0.213 HD
ENDBRANCH  18  29
BRANCH  18  31
ATOM     31  O           0     135.869 134.550 146.414  0.00  0.00    -0.362 OA
ATOM     32  H           0     135.728 135.004 147.256  0.00  0.00     0.213 HD
ENDBRANCH  18  31
TORSDOF 5
ENDMDL
MODEL 6
REMARK VINA RESULT:      -7.0      2.705      4.080
REMARK  5 active torsions:
REMARK  status: ('A' for Active; 'I' for Inactive)
REMARK    1  A    between atoms: C_6  and  C_7 
REMARK    2  A    between atoms: C_7  and  O_8 
REMARK    3  A    between atoms: O_8  and  C_9 
REMARK       I    between atoms: C_9  and  N_10 
REMARK    4  A    between atoms: C_23  and  O_24 
REMARK    5  A    between atoms: C_23  and  O_25 
ROOT
ATOM      1  N           0     135.340 135.168 143.058  0.00  0.00    -0.235 N 
ATOM      2  H           0     134.397 135.375 143.141  0.00  0.00     0.174 HD
ATOM      3  H           0     135.785 135.268 142.201  0.00  0.00     0.174 HD
ATOM      4  C           0     136.013 134.760 144.097  0.00  0.00     0.672 C 
ATOM      5  N           0     135.426 134.606 145.341  0.00  0.00    -0.218 N 
ATOM      6  C           0     135.987 133.612 146.252  0.00  0.00     0.151 C 
ATOM      7  C           0     137.486 133.758 146.425  0.00  0.00     0.180 C 
ATOM      8  N           0     137.763 134.895 147.328  0.00  0.00    -0.216 N 
ATOM      9  C           0     138.858 135.560 146.833  0.00  0.00     0.670 C 
ATOM     10  N           0     139.600 136.371 147.533  0.00  0.00    -0.235 N 
ATOM     11  H           0     139.391 136.536 148.466  0.00  0.00     0.174 HD
ATOM     12  H           0     140.362 136.809 147.121  0.00  0.00     0.174 HD
ATOM     13  C           0     138.227 134.117 145.147  0.00  0.00     0.217 C 
ATOM     14  N           0     139.075 135.264 145.511  0.00  0.00    -0.191 N 
ATOM     15  N           0     137.347 134.450 144.028  0.00  0.00    -0.183 N 
ATOM     16  C           0     138.184 134.322 142.821  0.00  0.00     0.150 C 
ATOM     17  C           0     139.076 133.089 143.103  0.00  0.00     0.093 C 
ATOM     18  C           0     139.104 132.956 144.646  0.00  0.00     0.209 C 
ATOM     19  H           0     134.663 135.144 145.601  0.00  0.00     0.178 HD
ATOM     20  H           0     137.262 135.130 148.125  0.00  0.00     0.178 HD
ATOM     21  H           0     139.685 135.729 144.918  0.00  0.00     0.180 HD
ENDROOT
BRANCH   6  22
ATOM     22  C           0     135.687 132.215 145.704  0.00  0.00     0.208 C 
BRANCH  22  23
ATOM     23  O           0     134.813 132.325 144.550  0.00  0.00    -0.302 OA
BRANCH  23  24
ATOM     24  C           0     134.973 131.494 143.502  0.00  0.00     0.358 C 
ATOM     25  N           0     136.174 130.928 143.268  0.00  0.00    -0.346 N 
ATOM     26  H           0     136.924 131.120 143.854  0.00  0.00     0.161 HD
ATOM     27  H           0     136.289 130.330 142.513  0.00  0.00     0.161 HD
ATOM     28  O           0     134.035 131.254 142.769  0.00  0.00    -0.239 OA
ENDBRANCH  23  24
ENDBRANCH  22  23
ENDBRANCH   6  22
BRANCH  18  29
ATOM     29  O           0     140.441 133.090 145.133  0.00  0.00    -0.362 OA
ATOM     30  H           0     140.383 133.149 146.097  0.00  0.00     0.213 HD
ENDBRANCH  18  29
BRANCH  18  31
ATOM     31  O           0     138.548 131.703 145.050  0.00  0.00    -0.362 OA
ATOM     32  H           0     137.595 131.839 145.146  0.00  0.00     0.213 HD
ENDBRANCH  18  31
TORSDOF 5
ENDMDL
MODEL 7
REMARK VINA RESULT:      -6.9      3.880      5.993
REMARK  5 active torsions:
REMARK  status: ('A' for Active; 'I' for Inactive)
REMARK    1  A    between atoms: C_6  and  C_7 
REMARK    2  A    between atoms: C_7  and  O_8 
REMARK    3  A    between atoms: O_8  and  C_9 
REMARK       I    between atoms: C_9  and  N_10 
REMARK    4  A    between atoms: C_23  and  O_24 
REMARK    5  A    between atoms: C_23  and  O_25 
ROOT
ATOM      1  N           0     136.068 134.779 147.586  0.00  0.00    -0.235 N 
ATOM      2  H           0     136.480 135.655 147.520  0.00  0.00     0.174 HD
ATOM      3  H           0     135.493 134.569 148.339  0.00  0.00     0.174 HD
ATOM      4  C           0     136.285 133.885 146.663  0.00  0.00     0.672 C 
ATOM      5  N           0     137.093 134.136 145.568  0.00  0.00    -0.218 N 
ATOM      6  C           0     137.787 133.012 144.947  0.00  0.00     0.151 C 
ATOM      7  C           0     136.856 131.859 144.622  0.00  0.00     0.180 C 
ATOM      8  N           0     136.081 132.188 143.408  0.00  0.00    -0.216 N 
ATOM      9  C           0     134.799 131.734 143.599  0.00  0.00     0.670 C 
ATOM     10  N           0     133.946 131.520 142.637  0.00  0.00    -0.235 N 
ATOM     11  H           0     134.203 131.682 141.716  0.00  0.00     0.174 HD
ATOM     12  H           0     133.054 131.197 142.843  0.00  0.00     0.174 HD
ATOM     13  C           0     135.793 131.603 145.678  0.00  0.00     0.217 C 
ATOM     14  N           0     134.526 131.533 144.930  0.00  0.00    -0.191 N 
ATOM     15  N           0     135.731 132.632 146.716  0.00  0.00    -0.183 N 
ATOM     16  C           0     135.003 132.011 147.838  0.00  0.00     0.150 C 
ATOM     17  C           0     135.511 130.549 147.861  0.00  0.00     0.093 C 
ATOM     18  C           0     136.032 130.281 146.426  0.00  0.00     0.209 C 
ATOM     19  H           0     137.196 135.037 145.222  0.00  0.00     0.178 HD
ATOM     20  H           0     136.415 132.641 142.618  0.00  0.00     0.178 HD
ATOM     21  H           0     133.650 131.369 145.311  0.00  0.00     0.180 HD
ENDROOT
BRANCH   6  22
ATOM     22  C           0     138.874 132.515 145.901  0.00  0.00     0.208 C 
BRANCH  22  23
ATOM     23  O           0     139.740 133.620 146.268  0.00  0.00    -0.302 OA
BRANCH  23  24
ATOM     24  C           0     140.021 133.855 147.564  0.00  0.00     0.358 C 
ATOM     25  N           0     139.372 133.173 148.528  0.00  0.00    -0.346 N 
ATOM     26  H           0     138.702 132.512 148.289  0.00  0.00     0.161 HD
ATOM     27  H           0     139.574 133.342 149.462  0.00  0.00     0.161 HD
ATOM     28  O           0     140.860 134.681 147.863  0.00  0.00    -0.239 OA
ENDBRANCH  23  24
ENDBRANCH  22  23
ENDBRANCH   6  22
BRANCH  18  29
ATOM     29  O           0     135.293 129.218 145.820  0.00  0.00    -0.362 OA
ATOM     30  H           0     134.416 129.570 145.615  0.00  0.00     0.213 HD
ENDBRANCH  18  29
BRANCH  18  31
ATOM     31  O           0     137.426 129.970 146.452  0.00  0.00    -0.362 OA
ATOM     32  H           0     137.538 129.146 145.957  0.00  0.00     0.213 HD
ENDBRANCH  18  31
TORSDOF 5
ENDMDL
MODEL 8
REMARK VINA RESULT:      -6.8      2.489      3.663
REMARK  5 active torsions:
REMARK  status: ('A' for Active; 'I' for Inactive)
REMARK    1  A    between atoms: C_6  and  C_7 
REMARK    2  A    between atoms: C_7  and  O_8 
REMARK    3  A    between atoms: O_8  and  C_9 
REMARK       I    between atoms: C_9  and  N_10 
REMARK    4  A    between atoms: C_23  and  O_24 
REMARK    5  A    between atoms: C_23  and  O_25 
ROOT
ATOM      1  N           0     138.054 135.402 147.169  0.00  0.00    -0.235 N 
ATOM      2  H           0     137.780 136.309 146.964  0.00  0.00     0.174 HD
ATOM      3  H           0     138.875 135.242 147.660  0.00  0.00     0.174 HD
ATOM      4  C           0     137.317 134.396 146.788  0.00  0.00     0.672 C 
ATOM      5  N           0     136.135 134.572 146.089  0.00  0.00    -0.218 N 
ATOM      6  C           0     135.703 133.512 145.182  0.00  0.00     0.151 C 
ATOM      7  C           0     135.690 132.148 145.843  0.00  0.00     0.180 C 
ATOM      8  N           0     134.498 132.038 146.709  0.00  0.00    -0.216 N 
ATOM      9  C           0     134.875 131.376 147.852  0.00  0.00     0.670 C 
ATOM     10  N           0     134.044 130.786 148.665  0.00  0.00    -0.235 N 
ATOM     11  H           0     133.092 130.798 148.478  0.00  0.00     0.174 HD
ATOM     12  H           0     134.378 130.335 149.456  0.00  0.00     0.174 HD
ATOM     13  C           0     136.854 131.906 146.791  0.00  0.00     0.217 C 
ATOM     14  N           0     136.235 131.411 148.032  0.00  0.00    -0.191 N 
ATOM     15  N           0     137.664 133.096 147.048  0.00  0.00    -0.183 N 
ATOM     16  C           0     138.941 132.591 147.585  0.00  0.00     0.150 C 
ATOM     17  C           0     139.221 131.308 146.765  0.00  0.00     0.093 C 
ATOM     18  C           0     137.834 130.854 146.242  0.00  0.00     0.209 C 
ATOM     19  H           0     135.607 135.378 146.199  0.00  0.00     0.178 HD
ATOM     20  H           0     133.609 132.372 146.508  0.00  0.00     0.178 HD
ATOM     21  H           0     136.708 131.153 148.839  0.00  0.00     0.180 HD
ENDROOT
BRANCH   6  22
ATOM     22  C           0     136.652 133.471 143.983  0.00  0.00     0.208 C 
BRANCH  22  23
ATOM     23  O           0     136.299 132.356 143.124  0.00  0.00    -0.302 OA
BRANCH  23  24
ATOM     24  C           0     135.402 132.526 142.133  0.00  0.00     0.358 C 
ATOM     25  N           0     135.755 133.184 141.011  0.00  0.00    -0.346 N 
ATOM     26  H           0     136.655 133.535 140.916  0.00  0.00     0.161 HD
ATOM     27  H           0     135.109 133.307 140.298  0.00  0.00     0.161 HD
ATOM     28  O           0     134.276 132.087 142.252  0.00  0.00    -0.239 OA
ENDBRANCH  23  24
ENDBRANCH  22  23
ENDBRANCH   6  22
BRANCH  18  29
ATOM     29  O           0     137.513 129.556 146.744  0.00  0.00    -0.362 OA
ATOM     30  H           0     136.548 129.488 146.746  0.00  0.00     0.213 HD
ENDBRANCH  18  29
BRANCH  18  31
ATOM     31  O           0     137.815 130.857 144.813  0.00  0.00    -0.362 OA
ATOM     32  H           0     138.735 130.932 144.522  0.00  0.00     0.213 HD
ENDBRANCH  18  31
TORSDOF 5
ENDMDL
MODEL 9
REMARK VINA RESULT:      -6.7      2.855      4.313
REMARK  5 active torsions:
REMARK  status: ('A' for Active; 'I' for Inactive)
REMARK    1  A    between atoms: C_6  and  C_7 
REMARK    2  A    between atoms: C_7  and  O_8 
REMARK    3  A    between atoms: O_8  and  C_9 
REMARK       I    between atoms: C_9  and  N_10 
REMARK    4  A    between atoms: C_23  and  O_24 
REMARK    5  A    between atoms: C_23  and  O_25 
ROOT
ATOM      1  N           0     136.058 134.652 147.225  0.00  0.00    -0.235 N 
ATOM      2  H           0     135.565 135.352 146.772  0.00  0.00     0.174 HD
ATOM      3  H           0     136.582 134.861 148.015  0.00  0.00     0.174 HD
ATOM      4  C           0     136.017 133.428 146.777  0.00  0.00     0.672 C 
ATOM      5  N           0     135.281 133.079 145.657  0.00  0.00    -0.218 N 
ATOM      6  C           0     135.733 131.941 144.861  0.00  0.00     0.151 C 
ATOM      7  C           0     135.980 130.702 145.700  0.00  0.00     0.180 C 
ATOM      8  N           0     134.684 130.081 146.044  0.00  0.00    -0.216 N 
ATOM      9  C           0     134.767 129.642 147.342  0.00  0.00     0.670 C 
ATOM     10  N           0     133.977 128.746 147.864  0.00  0.00    -0.235 N 
ATOM     11  H           0     133.276 128.345 147.326  0.00  0.00     0.174 HD
ATOM     12  H           0     134.091 128.480 148.790  0.00  0.00     0.174 HD
ATOM     13  C           0     136.621 130.983 147.049  0.00  0.00     0.217 C 
ATOM     14  N           0     135.784 130.263 148.023  0.00  0.00    -0.191 N 
ATOM     15  N           0     136.702 132.406 147.380  0.00  0.00    -0.183 N 
ATOM     16  C           0     137.713 132.502 148.448  0.00  0.00     0.150 C 
ATOM     17  C           0     138.796 131.471 148.044  0.00  0.00     0.093 C 
ATOM     18  C           0     138.068 130.464 147.118  0.00  0.00     0.209 C 
ATOM     19  H           0     134.487 133.576 145.410  0.00  0.00     0.178 HD
ATOM     20  H           0     133.914 129.998 145.459  0.00  0.00     0.178 HD
ATOM     21  H           0     135.929 130.230 148.981  0.00  0.00     0.180 HD
ENDROOT
BRANCH   6  22
ATOM     22  C           0     137.032 132.322 144.149  0.00  0.00     0.208 C 
BRANCH  22  23
ATOM     23  O           0     136.744 133.275 143.092  0.00  0.00    -0.302 OA
BRANCH  23  24
ATOM     24  C           0     137.316 134.494 143.110  0.00  0.00     0.358 C 
ATOM     25  N           0     136.623 135.557 143.564  0.00  0.00    -0.346 N 
ATOM     26  H           0     135.712 135.444 143.879  0.00  0.00     0.161 HD
ATOM     27  H           0     137.035 136.435 143.577  0.00  0.00     0.161 HD
ATOM     28  O           0     138.456 134.635 142.716  0.00  0.00    -0.239 OA
ENDBRANCH  23  24
ENDBRANCH  22  23
ENDBRANCH   6  22
BRANCH  18  29
ATOM     29  O           0     138.105 129.152 147.682  0.00  0.00    -0.362 OA
ATOM     30  H           0     137.827 128.541 146.986  0.00  0.00     0.213 HD
ENDBRANCH  18  29
BRANCH  18  31
ATOM     31  O           0     138.658 130.466 145.817  0.00  0.00    -0.362 OA
ATOM     32  H           0     138.079 130.992 145.248  0.00  0.00     0.213 HD
ENDBRANCH  18  31
TORSDOF 5
ENDMDL
