# created with PyMOL 2.3.4
@<TRIPOS>MOLECULE
ligand_out_0001
28 30 1                 
SMALL
USER_CHARGES
@<TRIPOS>ATOM
1	   N	134.798	132.099	146.345	N.3	1	UNK0	-0.235	
2	   N	136.427	133.604	145.558	N.3	1	UNK0	-0.218	
3	   N	136.131	135.900	143.526	N.3	1	UNK0	-0.216	
4	   N	134.367	137.340	142.887	N.3	1	UNK0	-0.235	
5	   N	134.114	134.992	143.009	N.3	1	UNK0	-0.191	
6	   N	134.676	132.944	144.165	N.3	1	UNK0	-0.183	
7	   C	135.276	132.851	145.394	C.3	1	UNK0	0.672	
8	   C	137.235	133.897	144.378	C.3	1	UNK0	0.150	
9	   C	136.419	134.479	143.241	C.3	1	UNK0	0.180	
10	   C	134.842	136.150	143.126	C.3	1	UNK0	0.670	
11	   C	135.043	133.852	143.078	C.3	1	UNK0	0.217	
12	   C	133.574	132.122	143.632	C.3	1	UNK0	0.150	
13	   C	133.968	131.863	142.158	C.3	1	UNK0	0.093	
14	   C	134.941	133.014	141.793	C.3	1	UNK0	0.209	
15	   C	137.896	132.603	143.898	C.2	1	UNK0	0.192	
16	   O	134.407	133.797	140.723	O.2	1	UNK0	-0.362	
17	   O	136.221	132.490	141.438	O.2	1	UNK0	-0.362	
18	   O	138.605	132.852	142.682	O.2	1	UNK0	-0.399	
19	   H	135.251	132.053	147.201	 H	1	UNK0	0.174	
20	   H	133.987	131.588	146.197	 H	1	UNK0	0.174	
21	   H	134.935	138.119	142.989	 H	1	UNK0	0.174	
22	   H	133.444	137.447	142.606	 H	1	UNK0	0.174	
23	   H	136.688	133.927	146.434	 H	1	UNK0	0.178	
24	   H	136.741	136.540	143.924	 H	1	UNK0	0.178	
25	   H	133.153	134.935	142.896	 H	1	UNK0	0.180	
26	   H	133.822	134.455	141.123	 H	1	UNK0	0.213	
27	   H	136.399	131.754	142.041	 H	1	UNK0	0.213	
28	   H	139.512	133.073	142.927	 H	1	UNK0	0.209	
@<TRIPOS>BOND
1 1 7 1
2 1 19 1
3 1 20 1
4 2 8 1
5 2 23 1
6 3 10 1
7 3 24 1
8 4 21 1
9 4 22 1
10 5 25 1
11 6 12 1
12 2 7 1
13 6 7 1
14 8 9 1
15 8 15 1
16 3 9 1
17 9 11 1
18 4 10 1
19 5 10 1
20 5 11 1
21 6 11 1
22 11 14 1
23 12 13 1
24 13 14 1
25 14 16 2
26 14 17 2
27 15 18 2
28 16 26 1
29 17 27 1
30 18 28 1
@<TRIPOS>SUBSTRUCTURE
1	UNK0	1	GROUP	1 ****	UNK
