MODEL 1
REMARK VINA RESULT:      -7.4      0.000      0.000
REMARK  5 active torsions:
REMARK  status: ('A' for Active; 'I' for Inactive)
REMARK    1  A    between atoms: C_6  and  C_7 
REMARK    2  A    between atoms: C_7  and  O_8 
REMARK    3  A    between atoms: O_8  and  C_9 
REMARK    4  A    between atoms: C_23  and  O_24 
REMARK    5  A    between atoms: C_23  and  O_25 
ROOT
ATOM      1  N           0     134.893 136.700 143.085  0.00  0.00    -0.235 N 
ATOM      2  H           0     134.085 137.161 142.808  0.00  0.00     0.174 HD
ATOM      3  H           0     135.700 137.205 143.268  0.00  0.00     0.174 HD
ATOM      4  C           0     134.890 135.403 143.218  0.00  0.00     0.672 C 
ATOM      5  N           0     133.761 134.640 142.976  0.00  0.00    -0.218 N 
ATOM      6  C           0     133.942 133.261 142.532  0.00  0.00     0.151 C 
ATOM      7  C           0     134.888 132.479 143.424  0.00  0.00     0.180 C 
ATOM      8  N           0     134.182 132.099 144.666  0.00  0.00    -0.216 N 
ATOM      9  C           0     135.067 132.242 145.706  0.00  0.00     0.670 C 
ATOM     10  N           0     134.928 131.670 146.870  0.00  0.00    -0.235 N 
ATOM     11  H           0     134.161 131.102 147.043  0.00  0.00     0.174 HD
ATOM     12  H           0     135.592 131.812 147.562  0.00  0.00     0.174 HD
ATOM     13  C           0     136.084 133.280 143.915  0.00  0.00     0.217 C 
ATOM     14  N           0     136.117 133.059 145.370  0.00  0.00    -0.191 N 
ATOM     15  N           0     136.007 134.708 143.603  0.00  0.00    -0.183 N 
ATOM     16  C           0     137.386 135.210 143.733  0.00  0.00     0.150 C 
ATOM     17  C           0     138.264 134.073 143.158  0.00  0.00     0.093 C 
ATOM     18  C           0     137.399 132.794 143.282  0.00  0.00     0.209 C 
ATOM     19  H           0     132.873 135.012 143.098  0.00  0.00     0.178 HD
ATOM     20  H           0     133.260 131.802 144.734  0.00  0.00     0.178 HD
ATOM     21  H           0     136.771 133.427 145.985  0.00  0.00     0.180 HD
ENDROOT
BRANCH   6  22
ATOM     22  C           0     134.501 133.268 141.109  0.00  0.00     0.206 C 
BRANCH  22  23
ATOM     23  O           0     133.446 133.619 140.176  0.00  0.00    -0.320 OA
BRANCH  23  24
ATOM     24  C           0     133.415 134.844 139.627  0.00  0.00     0.254 C 
ATOM     25  C           0     133.624 135.012 138.145  0.00  0.00     0.126 C 
ATOM     26  O           0     133.219 135.813 140.323  0.00  0.00    -0.266 OA
ENDBRANCH  23  24
ENDBRANCH  22  23
ENDBRANCH   6  22
BRANCH  18  27
ATOM     27  O           0     138.041 131.838 144.127  0.00  0.00    -0.362 OA
ATOM     28  H           0     137.709 131.988 145.022  0.00  0.00     0.213 HD
ENDBRANCH  18  27
BRANCH  18  29
ATOM     29  O           0     137.152 132.233 141.991  0.00  0.00    -0.362 OA
ATOM     30  H           0     136.395 131.639 142.086  0.00  0.00     0.213 HD
ENDBRANCH  18  29
TORSDOF 5
ENDMDL
MODEL 2
REMARK VINA RESULT:      -7.2      2.041      5.676
REMARK  5 active torsions:
REMARK  status: ('A' for Active; 'I' for Inactive)
REMARK    1  A    between atoms: C_6  and  C_7 
REMARK    2  A    between atoms: C_7  and  O_8 
REMARK    3  A    between atoms: O_8  and  C_9 
REMARK    4  A    between atoms: C_23  and  O_24 
REMARK    5  A    between atoms: C_23  and  O_25 
ROOT
ATOM      1  N           0     134.904 132.097 146.771  0.00  0.00    -0.235 N 
ATOM      2  H           0     135.150 132.216 147.702  0.00  0.00     0.174 HD
ATOM      3  H           0     134.245 131.431 146.525  0.00  0.00     0.174 HD
ATOM      4  C           0     135.457 132.838 145.851  0.00  0.00     0.672 C 
ATOM      5  N           0     136.398 133.807 146.153  0.00  0.00    -0.218 N 
ATOM      6  C           0     137.395 134.141 145.141  0.00  0.00     0.151 C 
ATOM      7  C           0     136.778 134.453 143.791  0.00  0.00     0.180 C 
ATOM      8  N           0     136.201 135.814 143.824  0.00  0.00    -0.216 N 
ATOM      9  C           0     135.013 135.777 143.134  0.00  0.00     0.670 C 
ATOM     10  N           0     134.416 136.830 142.648  0.00  0.00    -0.235 N 
ATOM     11  H           0     134.810 137.708 142.766  0.00  0.00     0.174 HD
ATOM     12  H           0     133.579 136.734 142.170  0.00  0.00     0.174 HD
ATOM     13  C           0     135.597 133.565 143.428  0.00  0.00     0.217 C 
ATOM     14  N           0     134.534 134.496 143.018  0.00  0.00    -0.191 N 
ATOM     15  N           0     135.147 132.705 144.523  0.00  0.00    -0.183 N 
ATOM     16  C           0     134.348 131.645 143.882  0.00  0.00     0.150 C 
ATOM     17  C           0     135.106 131.334 142.570  0.00  0.00     0.093 C 
ATOM     18  C           0     135.932 132.610 142.269  0.00  0.00     0.209 C 
ATOM     19  H           0     136.394 134.253 147.015  0.00  0.00     0.178 HD
ATOM     20  H           0     136.590 136.591 144.254  0.00  0.00     0.178 HD
ATOM     21  H           0     133.647 134.248 142.715  0.00  0.00     0.180 HD
ENDROOT
BRANCH   6  22
ATOM     22  C           0     138.353 132.959 144.982  0.00  0.00     0.206 C 
BRANCH  22  23
ATOM     23  O           0     139.075 132.751 146.224  0.00  0.00    -0.320 OA
BRANCH  23  24
ATOM     24  C           0     138.966 131.583 146.877  0.00  0.00     0.254 C 
ATOM     25  C           0     140.060 130.554 146.770  0.00  0.00     0.126 C 
ATOM     26  O           0     137.988 131.357 147.551  0.00  0.00    -0.266 OA
ENDBRANCH  23  24
ENDBRANCH  22  23
ENDBRANCH   6  22
BRANCH  18  27
ATOM     27  O           0     135.536 133.178 141.020  0.00  0.00    -0.362 OA
ATOM     28  H           0     134.709 133.652 141.178  0.00  0.00     0.213 HD
ENDBRANCH  18  27
BRANCH  18  29
ATOM     29  O           0     137.329 132.309 142.262  0.00  0.00    -0.362 OA
ATOM     30  H           0     137.650 132.498 141.370  0.00  0.00     0.213 HD
ENDBRANCH  18  29
TORSDOF 5
ENDMDL
MODEL 3
REMARK VINA RESULT:      -6.7      2.803      4.812
REMARK  5 active torsions:
REMARK  status: ('A' for Active; 'I' for Inactive)
REMARK    1  A    between atoms: C_6  and  C_7 
REMARK    2  A    between atoms: C_7  and  O_8 
REMARK    3  A    between atoms: O_8  and  C_9 
REMARK    4  A    between atoms: C_23  and  O_24 
REMARK    5  A    between atoms: C_23  and  O_25 
ROOT
ATOM      1  N           0     139.656 130.571 146.020  0.00  0.00    -0.235 N 
ATOM      2  H           0     140.415 130.716 145.433  0.00  0.00     0.174 HD
ATOM      3  H           0     139.683 129.862 146.680  0.00  0.00     0.174 HD
ATOM      4  C           0     138.604 131.335 145.924  0.00  0.00     0.672 C 
ATOM      5  N           0     138.522 132.364 145.002  0.00  0.00    -0.218 N 
ATOM      6  C           0     137.202 132.748 144.511  0.00  0.00     0.151 C 
ATOM      7  C           0     136.213 133.006 145.632  0.00  0.00     0.180 C 
ATOM      8  N           0     136.492 134.328 146.231  0.00  0.00    -0.216 N 
ATOM      9  C           0     136.329 134.210 147.590  0.00  0.00     0.670 C 
ATOM     10  N           0     136.136 135.218 148.395  0.00  0.00    -0.235 N 
ATOM     11  H           0     136.100 136.121 148.041  0.00  0.00     0.174 HD
ATOM     12  H           0     136.028 135.065 149.346  0.00  0.00     0.174 HD
ATOM     13  C           0     136.336 132.042 146.803  0.00  0.00     0.217 C 
ATOM     14  N           0     136.395 132.901 147.997  0.00  0.00    -0.191 N 
ATOM     15  N           0     137.507 131.168 146.728  0.00  0.00    -0.183 N 
ATOM     16  C           0     137.220 130.053 147.648  0.00  0.00     0.150 C 
ATOM     17  C           0     135.710 129.776 147.457  0.00  0.00     0.093 C 
ATOM     18  C           0     135.125 131.097 146.898  0.00  0.00     0.209 C 
ATOM     19  H           0     139.321 132.818 144.691  0.00  0.00     0.178 HD
ATOM     20  H           0     136.743 135.133 145.752  0.00  0.00     0.178 HD
ATOM     21  H           0     136.466 132.594 148.914  0.00  0.00     0.180 HD
ENDROOT
BRANCH   6  22
ATOM     22  C           0     136.659 131.626 143.625  0.00  0.00     0.206 C 
BRANCH  22  23
ATOM     23  O           0     135.980 132.201 142.477  0.00  0.00    -0.320 OA
BRANCH  23  24
ATOM     24  C           0     134.640 132.245 142.442  0.00  0.00     0.254 C 
ATOM     25  C           0     133.931 133.570 142.332  0.00  0.00     0.126 C 
ATOM     26  O           0     134.000 131.221 142.500  0.00  0.00    -0.266 OA
ENDBRANCH  23  24
ENDBRANCH  22  23
ENDBRANCH   6  22
BRANCH  18  27
ATOM     27  O           0     134.144 131.625 147.791  0.00  0.00    -0.362 OA
ATOM     28  H           0     133.342 131.101 147.667  0.00  0.00     0.213 HD
ENDBRANCH  18  27
BRANCH  18  29
ATOM     29  O           0     134.559 130.884 145.603  0.00  0.00    -0.362 OA
ATOM     30  H           0     135.139 131.328 144.969  0.00  0.00     0.213 HD
ENDBRANCH  18  29
TORSDOF 5
ENDMDL
MODEL 4
REMARK VINA RESULT:      -6.4      2.906      5.798
REMARK  5 active torsions:
REMARK  status: ('A' for Active; 'I' for Inactive)
REMARK    1  A    between atoms: C_6  and  C_7 
REMARK    2  A    between atoms: C_7  and  O_8 
REMARK    3  A    between atoms: O_8  and  C_9 
REMARK    4  A    between atoms: C_23  and  O_24 
REMARK    5  A    between atoms: C_23  and  O_25 
ROOT
ATOM      1  N           0     138.887 130.755 145.561  0.00  0.00    -0.235 N 
ATOM      2  H           0     138.989 130.113 146.281  0.00  0.00     0.174 HD
ATOM      3  H           0     139.633 130.945 144.972  0.00  0.00     0.174 HD
ATOM      4  C           0     137.744 131.355 145.381  0.00  0.00     0.672 C 
ATOM      5  N           0     136.648 131.112 146.190  0.00  0.00    -0.218 N 
ATOM      6  C           0     135.668 132.179 146.367  0.00  0.00     0.151 C 
ATOM      7  C           0     135.193 132.761 145.049  0.00  0.00     0.180 C 
ATOM      8  N           0     134.225 131.832 144.429  0.00  0.00    -0.216 N 
ATOM      9  C           0     134.473 131.816 143.078  0.00  0.00     0.670 C 
ATOM     10  N           0     133.617 131.411 142.181  0.00  0.00    -0.235 N 
ATOM     11  H           0     132.741 131.095 142.454  0.00  0.00     0.174 HD
ATOM     12  H           0     133.855 131.427 141.242  0.00  0.00     0.174 HD
ATOM     13  C           0     136.286 132.902 144.001  0.00  0.00     0.217 C 
ATOM     14  N           0     135.731 132.280 142.788  0.00  0.00    -0.191 N 
ATOM     15  N           0     137.552 132.272 144.380  0.00  0.00    -0.183 N 
ATOM     16  C           0     138.567 132.880 143.502  0.00  0.00     0.150 C 
ATOM     17  C           0     138.144 134.364 143.395  0.00  0.00     0.093 C 
ATOM     18  C           0     136.630 134.376 143.724  0.00  0.00     0.209 C 
ATOM     19  H           0     136.533 130.253 146.628  0.00  0.00     0.178 HD
ATOM     20  H           0     133.539 131.325 144.892  0.00  0.00     0.178 HD
ATOM     21  H           0     136.178 132.213 141.930  0.00  0.00     0.180 HD
ENDROOT
BRANCH   6  22
ATOM     22  C           0     136.300 133.297 147.199  0.00  0.00     0.206 C 
BRANCH  22  23
ATOM     23  O           0     135.561 133.455 148.438  0.00  0.00    -0.320 OA
BRANCH  23  24
ATOM     24  C           0     135.437 132.419 149.283  0.00  0.00     0.254 C 
ATOM     25  C           0     136.666 131.762 149.855  0.00  0.00     0.126 C 
ATOM     26  O           0     134.340 132.013 149.584  0.00  0.00    -0.266 OA
ENDBRANCH  23  24
ENDBRANCH  22  23
ENDBRANCH   6  22
BRANCH  18  27
ATOM     27  O           0     135.881 134.865 142.611  0.00  0.00    -0.362 OA
ATOM     28  H           0     135.840 134.148 141.964  0.00  0.00     0.213 HD
ENDBRANCH  18  27
BRANCH  18  29
ATOM     29  O           0     136.378 135.171 144.884  0.00  0.00    -0.362 OA
ATOM     30  H           0     136.286 136.084 144.582  0.00  0.00     0.213 HD
ENDBRANCH  18  29
TORSDOF 5
ENDMDL
MODEL 5
REMARK VINA RESULT:      -6.3      3.644      5.157
REMARK  5 active torsions:
REMARK  status: ('A' for Active; 'I' for Inactive)
REMARK    1  A    between atoms: C_6  and  C_7 
REMARK    2  A    between atoms: C_7  and  O_8 
REMARK    3  A    between atoms: O_8  and  C_9 
REMARK    4  A    between atoms: C_23  and  O_24 
REMARK    5  A    between atoms: C_23  and  O_25 
ROOT
ATOM      1  N           0     133.839 131.985 149.055  0.00  0.00    -0.235 N 
ATOM      2  H           0     132.945 131.624 148.951  0.00  0.00     0.174 HD
ATOM      3  H           0     134.013 132.663 149.727  0.00  0.00     0.174 HD
ATOM      4  C           0     134.808 131.555 148.296  0.00  0.00     0.672 C 
ATOM      5  N           0     134.610 130.585 147.329  0.00  0.00    -0.218 N 
ATOM      6  C           0     135.480 130.592 146.156  0.00  0.00     0.151 C 
ATOM      7  C           0     136.952 130.639 146.519  0.00  0.00     0.180 C 
ATOM      8  N           0     137.385 129.297 146.964  0.00  0.00    -0.216 N 
ATOM      9  C           0     138.241 129.468 148.024  0.00  0.00     0.670 C 
ATOM     10  N           0     139.088 128.565 148.435  0.00  0.00    -0.235 N 
ATOM     11  H           0     139.139 127.708 147.984  0.00  0.00     0.174 HD
ATOM     12  H           0     139.665 128.751 149.191  0.00  0.00     0.174 HD
ATOM     13  C           0     137.271 131.536 147.704  0.00  0.00     0.217 C 
ATOM     14  N           0     138.097 130.707 148.597  0.00  0.00    -0.191 N 
ATOM     15  N           0     136.086 132.037 148.402  0.00  0.00    -0.183 N 
ATOM     16  C           0     136.555 133.195 149.184  0.00  0.00     0.150 C 
ATOM     17  C           0     137.581 133.893 148.259  0.00  0.00     0.093 C 
ATOM     18  C           0     138.056 132.790 147.280  0.00  0.00     0.209 C 
ATOM     19  H           0     133.913 129.918 147.428  0.00  0.00     0.178 HD
ATOM     20  H           0     137.114 128.449 146.577  0.00  0.00     0.178 HD
ATOM     21  H           0     138.477 130.989 149.444  0.00  0.00     0.180 HD
ENDROOT
BRANCH   6  22
ATOM     22  C           0     135.145 131.815 145.300  0.00  0.00     0.206 C 
BRANCH  22  23
ATOM     23  O           0     135.147 131.439 143.898  0.00  0.00    -0.320 OA
BRANCH  23  24
ATOM     24  C           0     136.028 131.998 143.054  0.00  0.00     0.254 C 
ATOM     25  C           0     135.540 132.765 141.852  0.00  0.00     0.126 C 
ATOM     26  O           0     137.214 131.886 143.257  0.00  0.00    -0.266 OA
ENDBRANCH  23  24
ENDBRANCH  22  23
ENDBRANCH   6  22
BRANCH  18  27
ATOM     27  O           0     139.461 132.573 147.417  0.00  0.00    -0.362 OA
ATOM     28  H           0     139.670 132.675 148.355  0.00  0.00     0.213 HD
ENDBRANCH  18  27
BRANCH  18  29
ATOM     29  O           0     137.733 133.146 145.934  0.00  0.00    -0.362 OA
ATOM     30  H           0     137.936 132.375 145.386  0.00  0.00     0.213 HD
ENDBRANCH  18  29
TORSDOF 5
ENDMDL
MODEL 6
REMARK VINA RESULT:      -6.3      3.955      6.537
REMARK  5 active torsions:
REMARK  status: ('A' for Active; 'I' for Inactive)
REMARK    1  A    between atoms: C_6  and  C_7 
REMARK    2  A    between atoms: C_7  and  O_8 
REMARK    3  A    between atoms: O_8  and  C_9 
REMARK    4  A    between atoms: C_23  and  O_24 
REMARK    5  A    between atoms: C_23  and  O_25 
ROOT
ATOM      1  N           0     135.924 133.985 148.753  0.00  0.00    -0.235 N 
ATOM      2  H           0     135.733 134.017 149.703  0.00  0.00     0.174 HD
ATOM      3  H           0     135.791 134.774 148.205  0.00  0.00     0.174 HD
ATOM      4  C           0     136.364 132.883 148.213  0.00  0.00     0.672 C 
ATOM      5  N           0     136.576 131.733 148.954  0.00  0.00    -0.218 N 
ATOM      6  C           0     136.452 130.444 148.280  0.00  0.00     0.151 C 
ATOM      7  C           0     137.268 130.370 147.005  0.00  0.00     0.180 C 
ATOM      8  N           0     138.692 130.172 147.350  0.00  0.00    -0.216 N 
ATOM      9  C           0     139.439 130.937 146.487  0.00  0.00     0.670 C 
ATOM     10  N           0     140.707 130.747 146.250  0.00  0.00    -0.235 N 
ATOM     11  H           0     141.181 130.028 146.696  0.00  0.00     0.174 HD
ATOM     12  H           0     141.175 131.324 145.628  0.00  0.00     0.174 HD
ATOM     13  C           0     137.267 131.654 146.190  0.00  0.00     0.217 C 
ATOM     14  N           0     138.685 131.926 145.905  0.00  0.00    -0.191 N 
ATOM     15  N           0     136.643 132.788 146.875  0.00  0.00    -0.183 N 
ATOM     16  C           0     136.332 133.761 145.813  0.00  0.00     0.150 C 
ATOM     17  C           0     135.867 132.893 144.620  0.00  0.00     0.093 C 
ATOM     18  C           0     136.490 131.496 144.871  0.00  0.00     0.209 C 
ATOM     19  H           0     136.802 131.783 149.897  0.00  0.00     0.178 HD
ATOM     20  H           0     139.037 129.604 148.057  0.00  0.00     0.178 HD
ATOM     21  H           0     139.028 132.674 145.392  0.00  0.00     0.180 HD
ENDROOT
BRANCH   6  22
ATOM     22  C           0     134.980 130.206 147.938  0.00  0.00     0.206 C 
BRANCH  22  23
ATOM     23  O           0     134.824 128.880 147.369  0.00  0.00    -0.320 OA
BRANCH  23  24
ATOM     24  C           0     134.138 127.939 148.036  0.00  0.00     0.254 C 
ATOM     25  C           0     132.939 127.286 147.399  0.00  0.00     0.126 C 
ATOM     26  O           0     134.481 127.617 149.149  0.00  0.00    -0.266 OA
ENDBRANCH  23  24
ENDBRANCH  22  23
ENDBRANCH   6  22
BRANCH  18  27
ATOM     27  O           0     137.374 131.146 143.806  0.00  0.00    -0.362 OA
ATOM     28  H           0     136.977 131.483 142.991  0.00  0.00     0.213 HD
ENDBRANCH  18  27
BRANCH  18  29
ATOM     29  O           0     135.464 130.512 145.014  0.00  0.00    -0.362 OA
ATOM     30  H           0     134.831 130.663 144.299  0.00  0.00     0.213 HD
ENDBRANCH  18  29
TORSDOF 5
ENDMDL
MODEL 7
REMARK VINA RESULT:      -6.3      8.030     10.368
REMARK  5 active torsions:
REMARK  status: ('A' for Active; 'I' for Inactive)
REMARK    1  A    between atoms: C_6  and  C_7 
REMARK    2  A    between atoms: C_7  and  O_8 
REMARK    3  A    between atoms: O_8  and  C_9 
REMARK    4  A    between atoms: C_23  and  O_24 
REMARK    5  A    between atoms: C_23  and  O_25 
ROOT
ATOM      1  N           0     128.853 134.401 132.153  0.00  0.00    -0.235 N 
ATOM      2  H           0     128.135 134.012 131.630  0.00  0.00     0.174 HD
ATOM      3  H           0     129.010 135.358 132.123  0.00  0.00     0.174 HD
ATOM      4  C           0     129.601 133.640 132.901  0.00  0.00     0.672 C 
ATOM      5  N           0     129.411 132.272 132.982  0.00  0.00    -0.218 N 
ATOM      6  C           0     130.566 131.431 133.282  0.00  0.00     0.151 C 
ATOM      7  C           0     131.329 131.899 134.506  0.00  0.00     0.180 C 
ATOM      8  N           0     130.590 131.500 135.723  0.00  0.00    -0.216 N 
ATOM      9  C           0     130.679 132.536 136.621  0.00  0.00     0.670 C 
ATOM     10  N           0     130.471 132.414 137.902  0.00  0.00    -0.235 N 
ATOM     11  H           0     130.237 131.549 138.275  0.00  0.00     0.174 HD
ATOM     12  H           0     130.552 133.186 138.482  0.00  0.00     0.174 HD
ATOM     13  C           0     131.442 133.411 134.627  0.00  0.00     0.217 C 
ATOM     14  N           0     131.015 133.714 136.003  0.00  0.00    -0.191 N 
ATOM     15  N           0     130.630 134.143 133.654  0.00  0.00    -0.183 N 
ATOM     16  C           0     131.196 135.504 133.620  0.00  0.00     0.150 C 
ATOM     17  C           0     132.724 135.287 133.736  0.00  0.00     0.093 C 
ATOM     18  C           0     132.884 133.899 134.407  0.00  0.00     0.209 C 
ATOM     19  H           0     128.533 131.882 132.844  0.00  0.00     0.178 HD
ATOM     20  H           0     130.125 130.660 135.861  0.00  0.00     0.178 HD
ATOM     21  H           0     130.981 134.596 136.406  0.00  0.00     0.180 HD
ENDROOT
BRANCH   6  22
ATOM     22  C           0     131.511 131.441 132.079  0.00  0.00     0.206 C 
BRANCH  22  23
ATOM     23  O           0     132.604 130.515 132.314  0.00  0.00    -0.320 OA
BRANCH  23  24
ATOM     24  C           0     132.381 129.192 132.289  0.00  0.00     0.254 C 
ATOM     25  C           0     131.890 128.534 131.025  0.00  0.00     0.126 C 
ATOM     26  O           0     132.573 128.528 133.280  0.00  0.00    -0.266 OA
ENDBRANCH  23  24
ENDBRANCH  22  23
ENDBRANCH   6  22
BRANCH  18  27
ATOM     27  O           0     133.569 134.024 135.654  0.00  0.00    -0.362 OA
ATOM     28  H           0     132.893 134.035 136.344  0.00  0.00     0.213 HD
ENDBRANCH  18  27
BRANCH  18  29
ATOM     29  O           0     133.583 133.005 133.539  0.00  0.00    -0.362 OA
ATOM     30  H           0     132.913 132.513 133.046  0.00  0.00     0.213 HD
ENDBRANCH  18  29
TORSDOF 5
ENDMDL
MODEL 8
REMARK VINA RESULT:      -6.3      3.338      5.142
REMARK  5 active torsions:
REMARK  status: ('A' for Active; 'I' for Inactive)
REMARK    1  A    between atoms: C_6  and  C_7 
REMARK    2  A    between atoms: C_7  and  O_8 
REMARK    3  A    between atoms: O_8  and  C_9 
REMARK    4  A    between atoms: C_23  and  O_24 
REMARK    5  A    between atoms: C_23  and  O_25 
ROOT
ATOM      1  N           0     134.202 129.004 146.922  0.00  0.00    -0.235 N 
ATOM      2  H           0     133.767 128.451 146.254  0.00  0.00     0.174 HD
ATOM      3  H           0     133.975 128.900 147.859  0.00  0.00     0.174 HD
ATOM      4  C           0     135.096 129.881 146.560  0.00  0.00     0.672 C 
ATOM      5  N           0     135.458 130.061 145.236  0.00  0.00    -0.218 N 
ATOM      6  C           0     135.933 131.378 144.823  0.00  0.00     0.151 C 
ATOM      7  C           0     137.037 131.910 145.716  0.00  0.00     0.180 C 
ATOM      8  N           0     138.306 131.230 145.377  0.00  0.00    -0.216 N 
ATOM      9  C           0     138.970 130.982 146.554  0.00  0.00     0.670 C 
ATOM     10  N           0     140.248 130.735 146.635  0.00  0.00    -0.235 N 
ATOM     11  H           0     140.791 130.718 145.831  0.00  0.00     0.174 HD
ATOM     12  H           0     140.655 130.569 147.499  0.00  0.00     0.174 HD
ATOM     13  C           0     136.843 131.604 147.193  0.00  0.00     0.217 C 
ATOM     14  N           0     138.123 131.027 147.633  0.00  0.00    -0.191 N 
ATOM     15  N           0     135.734 130.688 147.466  0.00  0.00    -0.183 N 
ATOM     16  C           0     135.422 130.868 148.894  0.00  0.00     0.150 C 
ATOM     17  C           0     135.589 132.388 149.135  0.00  0.00     0.093 C 
ATOM     18  C           0     136.534 132.873 148.006  0.00  0.00     0.209 C 
ATOM     19  H           0     135.399 129.330 144.600  0.00  0.00     0.178 HD
ATOM     20  H           0     138.613 131.000 144.486  0.00  0.00     0.178 HD
ATOM     21  H           0     138.334 130.732 148.533  0.00  0.00     0.180 HD
ENDROOT
BRANCH   6  22
ATOM     22  C           0     134.759 132.358 144.855  0.00  0.00     0.206 C 
BRANCH  22  23
ATOM     23  O           0     135.228 133.687 144.504  0.00  0.00    -0.320 OA
BRANCH  23  24
ATOM     24  C           0     134.834 134.256 143.355  0.00  0.00     0.254 C 
ATOM     25  C           0     134.749 135.757 143.247  0.00  0.00     0.126 C 
ATOM     26  O           0     134.546 133.565 142.406  0.00  0.00    -0.266 OA
ENDBRANCH  23  24
ENDBRANCH  22  23
ENDBRANCH   6  22
BRANCH  18  27
ATOM     27  O           0     137.731 133.420 148.559  0.00  0.00    -0.362 OA
ATOM     28  H           0     137.730 134.364 148.352  0.00  0.00     0.213 HD
ENDBRANCH  18  27
BRANCH  18  29
ATOM     29  O           0     135.875 133.839 147.186  0.00  0.00    -0.362 OA
ATOM     30  H           0     136.484 134.584 147.088  0.00  0.00     0.213 HD
ENDBRANCH  18  29
TORSDOF 5
ENDMDL
MODEL 9
REMARK VINA RESULT:      -6.1      8.665     10.565
REMARK  5 active torsions:
REMARK  status: ('A' for Active; 'I' for Inactive)
REMARK    1  A    between atoms: C_6  and  C_7 
REMARK    2  A    between atoms: C_7  and  O_8 
REMARK    3  A    between atoms: O_8  and  C_9 
REMARK    4  A    between atoms: C_23  and  O_24 
REMARK    5  A    between atoms: C_23  and  O_25 
ROOT
ATOM      1  N           0     129.092 132.715 132.397  0.00  0.00    -0.235 N 
ATOM      2  H           0     128.546 131.951 132.640  0.00  0.00     0.174 HD
ATOM      3  H           0     128.892 133.217 131.592  0.00  0.00     0.174 HD
ATOM      4  C           0     130.088 133.073 133.158  0.00  0.00     0.672 C 
ATOM      5  N           0     130.408 132.393 134.321  0.00  0.00    -0.218 N 
ATOM      6  C           0     131.797 132.405 134.768  0.00  0.00     0.151 C 
ATOM      7  C           0     132.379 133.804 134.835  0.00  0.00     0.180 C 
ATOM      8  N           0     131.873 134.484 136.046  0.00  0.00    -0.216 N 
ATOM      9  C           0     131.611 135.790 135.711  0.00  0.00     0.670 C 
ATOM     10  N           0     131.503 136.760 136.575  0.00  0.00    -0.235 N 
ATOM     11  H           0     131.608 136.580 137.523  0.00  0.00     0.174 HD
ATOM     12  H           0     131.318 137.662 136.271  0.00  0.00     0.174 HD
ATOM     13  C           0     131.941 134.714 133.697  0.00  0.00     0.217 C 
ATOM     14  N           0     131.479 135.948 134.354  0.00  0.00    -0.191 N 
ATOM     15  N           0     130.889 134.143 132.855  0.00  0.00    -0.183 N 
ATOM     16  C           0     130.924 134.922 131.605  0.00  0.00     0.150 C 
ATOM     17  C           0     132.430 135.171 131.350  0.00  0.00     0.093 C 
ATOM     18  C           0     133.102 135.035 132.740  0.00  0.00     0.209 C 
ATOM     19  H           0     129.726 131.922 134.826  0.00  0.00     0.178 HD
ATOM     20  H           0     131.747 134.080 136.920  0.00  0.00     0.178 HD
ATOM     21  H           0     131.141 136.738 133.905  0.00  0.00     0.180 HD
ENDROOT
BRANCH   6  22
ATOM     22  C           0     132.636 131.570 133.799  0.00  0.00     0.206 C 
BRANCH  22  23
ATOM     23  O           0     133.989 131.450 134.309  0.00  0.00    -0.320 OA
BRANCH  23  24
ATOM     24  C           0     134.812 130.512 133.814  0.00  0.00     0.254 C 
ATOM     25  C           0     135.838 130.881 132.774  0.00  0.00     0.126 C 
ATOM     26  O           0     134.730 129.370 134.203  0.00  0.00    -0.266 OA
ENDBRANCH  23  24
ENDBRANCH  22  23
ENDBRANCH   6  22
BRANCH  18  27
ATOM     27  O           0     133.735 136.260 133.110  0.00  0.00    -0.362 OA
ATOM     28  H           0     133.387 136.944 132.522  0.00  0.00     0.213 HD
ENDBRANCH  18  27
BRANCH  18  29
ATOM     29  O           0     134.049 133.965 132.732  0.00  0.00    -0.362 OA
ATOM     30  H           0     133.608 133.199 133.125  0.00  0.00     0.213 HD
ENDBRANCH  18  29
TORSDOF 5
ENDMDL
