# created with PyMOL 2.3.4
@<TRIPOS>MOLECULE
ligand_out_0001
30 32 1                 
SMALL
USER_CHARGES
@<TRIPOS>ATOM
1	   N	134.893	136.700	143.085	N.3	1	UNK0	-0.235	
2	   N	133.761	134.640	142.976	N.3	1	UNK0	-0.218	
3	   N	134.182	132.099	144.666	N.3	1	UNK0	-0.216	
4	   N	134.928	131.670	146.870	N.3	1	UNK0	-0.235	
5	   N	136.117	133.059	145.370	N.3	1	UNK0	-0.191	
6	   N	136.007	134.708	143.603	N.3	1	UNK0	-0.183	
7	   C	134.890	135.403	143.218	C.3	1	UNK0	0.672	
8	   C	133.942	133.261	142.532	C.3	1	UNK0	0.151	
9	   C	134.888	132.479	143.424	C.3	1	UNK0	0.180	
10	   C	135.067	132.242	145.706	C.3	1	UNK0	0.670	
11	   C	136.084	133.280	143.915	C.3	1	UNK0	0.217	
12	   C	137.386	135.210	143.733	C.3	1	UNK0	0.150	
13	   C	138.264	134.073	143.158	C.3	1	UNK0	0.093	
14	   C	137.399	132.794	143.282	C.3	1	UNK0	0.209	
15	   C	134.501	133.268	141.109	C.2	1	UNK0	0.206	
16	   C	133.415	134.844	139.627	C.2	1	UNK0	0.254	
17	   C	133.624	135.012	138.145	C.3	1	UNK0	0.126	
18	   O	133.446	133.619	140.176	O.2	1	UNK0	-0.320	
19	   O	133.219	135.813	140.323	O.co2	1	UNK0	-0.266	
20	   O	138.041	131.838	144.127	O.2	1	UNK0	-0.362	
21	   O	137.152	132.233	141.991	O.2	1	UNK0	-0.362	
22	   H	134.085	137.161	142.808	 H	1	UNK0	0.174	
23	   H	135.700	137.205	143.268	 H	1	UNK0	0.174	
24	   H	134.161	131.102	147.043	 H	1	UNK0	0.174	
25	   H	135.592	131.812	147.562	 H	1	UNK0	0.174	
26	   H	132.873	135.012	143.098	 H	1	UNK0	0.178	
27	   H	133.260	131.802	144.734	 H	1	UNK0	0.178	
28	   H	136.771	133.427	145.985	 H	1	UNK0	0.180	
29	   H	137.709	131.988	145.022	 H	1	UNK0	0.213	
30	   H	136.395	131.639	142.086	 H	1	UNK0	0.213	
@<TRIPOS>BOND
1 1 7 1
2 1 22 1
3 1 23 1
4 2 8 1
5 2 26 1
6 3 10 1
7 3 27 1
8 4 24 1
9 4 25 1
10 5 28 1
11 6 12 1
12 2 7 1
13 6 7 1
14 8 9 1
15 8 15 1
16 3 9 1
17 9 11 1
18 4 10 1
19 5 10 1
20 5 11 1
21 6 11 1
22 11 14 1
23 12 13 1
24 13 14 1
25 14 20 2
26 14 21 2
27 15 18 2
28 16 17 1
29 16 19 2
30 16 18 2
31 20 29 1
32 21 30 1
@<TRIPOS>SUBSTRUCTURE
1	UNK0	1	GROUP	1 ****	UNK
