# created with PyMOL 2.3.4
@<TRIPOS>MOLECULE
ligand_out_0001
41 43 1                 
SMALL
USER_CHARGES
@<TRIPOS>ATOM
1	   N	134.737	132.045	146.607	N.3	1	UNK0	-0.235	
2	   N	136.248	133.778	146.103	N.3	1	UNK0	-0.218	
3	   N	136.147	135.841	143.817	N.3	1	UNK0	-0.216	
4	   N	134.413	136.877	142.586	N.3	1	UNK0	-0.235	
5	   N	134.528	134.536	142.902	N.3	1	UNK0	-0.191	
6	   N	135.081	132.710	144.390	N.3	1	UNK0	-0.183	
7	   N	137.839	130.960	147.578	N.pl3	1	UNK0	-0.337	
8	   N	132.811	126.055	147.076	N.3	1	UNK0	-0.079	
9	   C	135.328	132.812	145.734	C.3	1	UNK0	0.672	
10	   C	137.289	134.142	145.147	C.3	1	UNK0	0.151	
11	   C	136.733	134.484	143.779	C.3	1	UNK0	0.180	
12	   C	134.993	135.816	143.072	C.3	1	UNK0	0.670	
13	   C	135.577	133.600	143.339	C.3	1	UNK0	0.217	
14	   C	134.319	131.663	143.686	C.3	1	UNK0	0.150	
15	   C	135.140	131.389	142.403	C.3	1	UNK0	0.093	
16	   C	135.971	132.676	142.173	C.3	1	UNK0	0.209	
17	   C	138.261	132.969	145.003	C.2	1	UNK0	0.208	
18	   C	138.813	131.375	146.744	C.2	1	UNK0	0.360	
19	   C	137.826	129.577	148.059	C.3	1	UNK0	0.125	
20	   C	136.478	128.934	147.729	C.3	1	UNK0	0.020	
21	   C	135.950	128.194	148.959	C.3	1	UNK0	0.002	
22	   C	134.420	128.205	148.944	C.3	1	UNK0	0.002	
23	   C	133.924	128.196	147.497	C.3	1	UNK0	0.027	
24	   C	132.582	127.464	147.422	C.3	1	UNK0	0.229	
25	   O	138.825	132.646	146.302	O.2	1	UNK0	-0.302	
26	   O	139.682	130.601	146.393	O.co2	1	UNK0	-0.239	
27	   O	135.630	133.273	140.921	O.2	1	UNK0	-0.362	
28	   O	137.368	132.382	142.223	O.2	1	UNK0	-0.362	
29	   H	134.939	132.142	147.551	 H	1	UNK0	0.174	
30	   H	134.094	131.382	146.314	 H	1	UNK0	0.174	
31	   H	134.796	137.754	142.743	 H	1	UNK0	0.174	
32	   H	133.599	136.788	142.066	 H	1	UNK0	0.174	
33	   H	136.202	134.201	146.975	 H	1	UNK0	0.178	
34	   H	136.511	136.609	144.285	 H	1	UNK0	0.178	
35	   H	133.657	134.290	142.552	 H	1	UNK0	0.180	
36	   H	137.145	131.578	147.858	 H	1	UNK0	0.164	
37	   H	133.106	125.551	147.899	 H	1	UNK0	0.274	
38	   H	131.956	125.652	146.723	 H	1	UNK0	0.274	
39	   H	133.529	125.995	146.370	 H	1	UNK0	0.274	
40	   H	135.103	132.623	140.436	 H	1	UNK0	0.213	
41	   H	137.504	131.799	142.983	 H	1	UNK0	0.213	
@<TRIPOS>BOND
1 1 9 1
2 1 29 1
3 1 30 1
4 2 10 1
5 2 33 1
6 3 12 1
7 3 34 1
8 4 31 1
9 4 32 1
10 5 35 1
11 6 14 1
12 7 19 1
13 7 36 1
14 8 37 1
15 8 38 1
16 8 39 1
17 2 9 1
18 6 9 1
19 10 11 1
20 10 17 1
21 3 11 1
22 11 13 1
23 4 12 1
24 5 12 1
25 5 13 1
26 6 13 1
27 13 16 1
28 14 15 1
29 15 16 1
30 16 27 2
31 16 28 2
32 17 25 2
33 7 18 1
34 18 26 2
35 19 20 1
36 20 21 1
37 21 22 1
38 22 23 1
39 23 24 1
40 8 24 1
41 18 25 2
42 27 40 1
43 28 41 1
@<TRIPOS>SUBSTRUCTURE
1	UNK0	1	GROUP	1 ****	UNK
