# created with PyMOL 2.3.4
@<TRIPOS>MOLECULE
ligand_out_0001
56 60 1                 
SMALL
USER_CHARGES
@<TRIPOS>ATOM
1	   N	133.807	135.430	138.453	N.pl3	1	UNK0	-0.337	
2	   N	135.261	135.510	143.371	N.3	1	UNK0	-0.218	
3	   N	137.587	135.183	143.243	N.3	1	UNK0	-0.235	
4	   N	136.189	133.462	143.990	N.3	1	UNK0	-0.183	
5	   N	134.888	132.853	145.937	N.3	1	UNK0	-0.191	
6	   N	133.234	134.293	145.347	N.3	1	UNK0	-0.216	
7	   N	133.339	133.539	147.586	N.3	1	UNK0	-0.235	
8	   N	131.010	133.509	132.023	N.pl3	1	UNK0	-0.361	
9	   C	133.190	134.814	139.481	C.2	1	UNK0	0.360	
10	   C	134.047	134.254	141.678	C.2	1	UNK0	0.208	
11	   C	133.996	134.836	143.092	C.3	1	UNK0	0.151	
12	   C	136.397	134.734	143.526	C.3	1	UNK0	0.672	
13	   C	134.924	132.899	144.466	C.3	1	UNK0	0.217	
14	   C	137.159	132.355	144.063	C.3	1	UNK0	0.150	
15	   C	133.703	133.715	144.069	C.3	1	UNK0	0.180	
16	   C	134.871	131.472	143.896	C.3	1	UNK0	0.209	
17	   C	133.792	133.561	146.364	C.3	1	UNK0	0.670	
18	   C	136.353	131.108	143.626	C.3	1	UNK0	0.093	
19	   C	133.525	135.016	137.076	C.3	1	UNK0	0.125	
20	   C	134.722	135.360	136.187	C.3	1	UNK0	0.020	
21	   C	134.336	135.174	134.718	C.3	1	UNK0	0.002	
22	   C	133.178	134.179	134.616	C.3	1	UNK0	0.002	
23	   C	133.145	133.574	133.211	C.3	1	UNK0	0.020	
24	   C	132.160	134.357	132.342	C.3	1	UNK0	0.122	
25	   C	129.790	133.819	132.504	C.2	1	UNK0	0.221	
26	   C	128.606	132.946	132.174	C.3	1	UNK0	0.141	
27	   C	129.045	131.505	132.113	C.3	1	UNK0	-0.049	
28	   C	128.891	130.788	130.940	C.3	1	UNK0	0.008	
29	   C	129.296	129.470	130.875	C.3	1	UNK0	0.016	
30	   C	129.854	128.858	132.000	C.3	1	UNK0	0.015	
31	   C	130.002	129.588	133.183	C.3	1	UNK0	0.016	
32	   C	129.598	130.906	133.232	C.3	1	UNK0	0.008	
33	   C	130.284	127.447	131.941	C.2	1	UNK0	0.192	
34	   C	131.718	127.106	132.051	C.3	1	UNK0	0.015	
35	   C	132.115	125.951	132.728	C.3	1	UNK0	0.015	
36	   C	133.454	125.636	132.823	C.3	1	UNK0	0.001	
37	   C	134.405	126.469	132.259	C.3	1	UNK0	0.000	
38	   C	134.019	127.619	131.593	C.3	1	UNK0	0.001	
39	   C	132.683	127.942	131.485	C.3	1	UNK0	0.015	
40	   O	132.401	133.916	139.265	O.co2	1	UNK0	-0.239	
41	   O	133.449	135.194	140.746	O.2	1	UNK0	-0.302	
42	   O	134.303	130.571	144.848	O.2	1	UNK0	-0.362	
43	   O	134.123	131.450	142.679	O.2	1	UNK0	-0.362	
44	   O	129.644	134.800	133.202	O.2	1	UNK0	-0.273	
45	   O	129.459	126.565	131.805	O.2	1	UNK0	-0.287	
46	   H	134.437	136.146	138.625	 H	1	UNK0	0.164	
47	   H	135.304	136.476	143.447	 H	1	UNK0	0.178	
48	   H	137.698	136.088	142.912	 H	1	UNK0	0.174	
49	   H	138.363	134.613	143.367	 H	1	UNK0	0.174	
50	   H	132.638	135.053	145.447	 H	1	UNK0	0.178	
51	   H	132.558	134.064	147.823	 H	1	UNK0	0.174	
52	   H	133.782	132.999	148.258	 H	1	UNK0	0.174	
53	   H	135.528	132.398	146.506	 H	1	UNK0	0.180	
54	   H	133.401	130.875	145.018	 H	1	UNK0	0.213	
55	   H	133.190	131.525	142.923	 H	1	UNK0	0.213	
56	   H	131.125	132.724	131.464	 H	1	UNK0	0.162	
@<TRIPOS>BOND
1 1 19 1
2 1 46 1
3 2 12 1
4 2 47 1
5 3 48 1
6 3 49 1
7 4 13 1
8 4 14 1
9 5 17 1
10 5 53 1
11 6 17 1
12 6 50 1
13 7 51 1
14 7 52 1
15 8 25 1
16 8 56 1
17 1 9 1
18 9 40 2
19 9 41 2
20 10 11 1
21 2 11 1
22 11 15 1
23 3 12 1
24 4 12 1
25 5 13 1
26 13 15 1
27 13 16 1
28 14 18 1
29 6 15 1
30 16 18 1
31 16 42 2
32 16 43 2
33 7 17 1
34 19 20 1
35 20 21 1
36 21 22 1
37 22 23 1
38 23 24 1
39 8 24 1
40 25 26 1
41 25 44 2
42 26 27 1
43 27 28 1
44 27 32 1
45 28 29 1
46 29 30 1
47 30 31 1
48 30 33 1
49 31 32 1
50 33 34 1
51 33 45 2
52 34 35 1
53 34 39 1
54 35 36 1
55 36 37 1
56 37 38 1
57 38 39 1
58 10 41 2
59 42 54 1
60 43 55 1
@<TRIPOS>SUBSTRUCTURE
1	UNK0	1	GROUP	1 ****	UNK
