MODEL 1
REMARK VINA RESULT:     -10.0      0.000      0.000
REMARK  16 active torsions:
REMARK  status: ('A' for Active; 'I' for Inactive)
REMARK    1  A    between atoms: C_6  and  C_7 
REMARK    2  A    between atoms: C_7  and  O_8 
REMARK    3  A    between atoms: O_8  and  C_9 
REMARK       I    between atoms: C_9  and  N_10 
REMARK    4  A    between atoms: N_10  and  C_11 
REMARK    5  A    between atoms: C_11  and  C_12 
REMARK    6  A    between atoms: C_12  and  C_13 
REMARK    7  A    between atoms: C_13  and  C_14 
REMARK    8  A    between atoms: C_14  and  C_15 
REMARK    9  A    between atoms: C_15  and  C_16 
REMARK   10  A    between atoms: C_16  and  N_17 
REMARK       I    between atoms: N_17  and  C_18 
REMARK   11  A    between atoms: C_18  and  C_19 
REMARK   12  A    between atoms: C_19  and  C_20 
REMARK   13  A    between atoms: C_23  and  C_24 
REMARK   14  A    between atoms: C_24  and  C_25 
REMARK   15  A    between atoms: C_47  and  O_48 
REMARK   16  A    between atoms: C_47  and  O_49 
ROOT
ATOM      1  C           0     133.190 134.814 139.481  0.00  0.00     0.360 C 
ATOM      2  N           0     133.807 135.430 138.453  0.00  0.00    -0.337 N 
ATOM      3  O           0     132.401 133.916 139.265  0.00  0.00    -0.239 OA
ATOM      4  H           0     134.437 136.146 138.625  0.00  0.00     0.164 HD
ENDROOT
BRANCH   1   5
ATOM      5  O           0     133.449 135.194 140.746  0.00  0.00    -0.302 OA
BRANCH   5   6
ATOM      6  C           0     134.047 134.254 141.678  0.00  0.00     0.208 C 
BRANCH   6   7
ATOM      7  C           0     133.996 134.836 143.092  0.00  0.00     0.151 C 
ATOM      8  N           0     135.261 135.510 143.371  0.00  0.00    -0.218 N 
ATOM      9  C           0     136.397 134.734 143.526  0.00  0.00     0.672 C 
ATOM     10  H           0     135.304 136.476 143.447  0.00  0.00     0.178 HD
ATOM     11  N           0     137.587 135.183 143.243  0.00  0.00    -0.235 N 
ATOM     12  N           0     136.189 133.462 143.990  0.00  0.00    -0.183 N 
ATOM     13  H           0     137.698 136.088 142.912  0.00  0.00     0.174 HD
ATOM     14  H           0     138.363 134.613 143.367  0.00  0.00     0.174 HD
ATOM     15  C           0     134.924 132.899 144.466  0.00  0.00     0.217 C 
ATOM     16  C           0     137.159 132.355 144.063  0.00  0.00     0.150 C 
ATOM     17  C           0     133.703 133.715 144.069  0.00  0.00     0.180 C 
ATOM     18  C           0     134.871 131.472 143.896  0.00  0.00     0.209 C 
ATOM     19  N           0     134.888 132.853 145.937  0.00  0.00    -0.191 N 
ATOM     20  N           0     133.234 134.293 145.347  0.00  0.00    -0.216 N 
ATOM     21  C           0     133.792 133.561 146.364  0.00  0.00     0.670 C 
ATOM     22  H           0     132.638 135.053 145.447  0.00  0.00     0.178 HD
ATOM     23  N           0     133.339 133.539 147.586  0.00  0.00    -0.235 N 
ATOM     24  H           0     132.558 134.064 147.823  0.00  0.00     0.174 HD
ATOM     25  H           0     133.782 132.999 148.258  0.00  0.00     0.174 HD
ATOM     26  C           0     136.353 131.108 143.626  0.00  0.00     0.093 C 
ATOM     27  H           0     135.528 132.398 146.506  0.00  0.00     0.180 HD
BRANCH  18  28
ATOM     28  O           0     134.303 130.571 144.848  0.00  0.00    -0.362 OA
ATOM     29  H           0     133.401 130.875 145.018  0.00  0.00     0.213 HD
ENDBRANCH  18  28
BRANCH  18  30
ATOM     30  O           0     134.123 131.450 142.679  0.00  0.00    -0.362 OA
ATOM     31  H           0     133.190 131.525 142.923  0.00  0.00     0.213 HD
ENDBRANCH  18  30
ENDBRANCH   6   7
ENDBRANCH   5   6
ENDBRANCH   1   5
BRANCH   2  32
ATOM     32  C           0     133.525 135.016 137.076  0.00  0.00     0.125 C 
BRANCH  32  33
ATOM     33  C           0     134.722 135.360 136.187  0.00  0.00     0.020 C 
BRANCH  33  34
ATOM     34  C           0     134.336 135.174 134.718  0.00  0.00     0.002 C 
BRANCH  34  35
ATOM     35  C           0     133.178 134.179 134.616  0.00  0.00     0.002 C 
BRANCH  35  36
ATOM     36  C           0     133.145 133.574 133.211  0.00  0.00     0.020 C 
BRANCH  36  37
ATOM     37  C           0     132.160 134.357 132.342  0.00  0.00     0.122 C 
BRANCH  37  38
ATOM     38  N           0     131.010 133.509 132.023  0.00  0.00    -0.361 N 
ATOM     39  C           0     129.790 133.819 132.504  0.00  0.00     0.221 C 
ATOM     40  O           0     129.644 134.800 133.202  0.00  0.00    -0.273 OA
ATOM     41  H           0     131.125 132.724 131.464  0.00  0.00     0.162 HD
BRANCH  39  42
ATOM     42  C           0     128.606 132.946 132.174  0.00  0.00     0.141 C 
BRANCH  42  43
ATOM     43  C           0     129.045 131.505 132.113  0.00  0.00    -0.049 A 
ATOM     44  C           0     128.891 130.788 130.940  0.00  0.00     0.008 A 
ATOM     45  C           0     129.296 129.470 130.875  0.00  0.00     0.016 A 
ATOM     46  C           0     129.854 128.858 132.000  0.00  0.00     0.015 A 
ATOM     47  C           0     130.002 129.588 133.183  0.00  0.00     0.016 A 
ATOM     48  C           0     129.598 130.906 133.232  0.00  0.00     0.008 A 
BRANCH  46  49
ATOM     49  C           0     130.284 127.447 131.941  0.00  0.00     0.192 C 
ATOM     50  O           0     129.459 126.565 131.805  0.00  0.00    -0.287 OA
BRANCH  49  51
ATOM     51  C           0     131.718 127.106 132.051  0.00  0.00     0.015 A 
ATOM     52  C           0     132.115 125.951 132.728  0.00  0.00     0.015 A 
ATOM     53  C           0     133.454 125.636 132.823  0.00  0.00     0.001 A 
ATOM     54  C           0     134.405 126.469 132.259  0.00  0.00     0.000 A 
ATOM     55  C           0     134.019 127.619 131.593  0.00  0.00     0.001 A 
ATOM     56  C           0     132.683 127.942 131.485  0.00  0.00     0.015 A 
ENDBRANCH  49  51
ENDBRANCH  46  49
ENDBRANCH  42  43
ENDBRANCH  39  42
ENDBRANCH  37  38
ENDBRANCH  36  37
ENDBRANCH  35  36
ENDBRANCH  34  35
ENDBRANCH  33  34
ENDBRANCH  32  33
ENDBRANCH   2  32
TORSDOF 16
ENDMDL
MODEL 2
REMARK VINA RESULT:      -9.2      1.825      2.654
REMARK  16 active torsions:
REMARK  status: ('A' for Active; 'I' for Inactive)
REMARK    1  A    between atoms: C_6  and  C_7 
REMARK    2  A    between atoms: C_7  and  O_8 
REMARK    3  A    between atoms: O_8  and  C_9 
REMARK       I    between atoms: C_9  and  N_10 
REMARK    4  A    between atoms: N_10  and  C_11 
REMARK    5  A    between atoms: C_11  and  C_12 
REMARK    6  A    between atoms: C_12  and  C_13 
REMARK    7  A    between atoms: C_13  and  C_14 
REMARK    8  A    between atoms: C_14  and  C_15 
REMARK    9  A    between atoms: C_15  and  C_16 
REMARK   10  A    between atoms: C_16  and  N_17 
REMARK       I    between atoms: N_17  and  C_18 
REMARK   11  A    between atoms: C_18  and  C_19 
REMARK   12  A    between atoms: C_19  and  C_20 
REMARK   13  A    between atoms: C_23  and  C_24 
REMARK   14  A    between atoms: C_24  and  C_25 
REMARK   15  A    between atoms: C_47  and  O_48 
REMARK   16  A    between atoms: C_47  and  O_49 
ROOT
ATOM      1  C           0     134.078 133.849 141.103  0.00  0.00     0.360 C 
ATOM      2  N           0     134.153 134.221 139.808  0.00  0.00    -0.337 N 
ATOM      3  O           0     133.262 134.370 141.837  0.00  0.00    -0.239 OA
ATOM      4  H           0     134.803 133.805 139.222  0.00  0.00     0.164 HD
ENDROOT
BRANCH   1   5
ATOM      5  O           0     134.907 132.903 141.580  0.00  0.00    -0.302 OA
BRANCH   5   6
ATOM      6  C           0     135.431 133.010 142.930  0.00  0.00     0.208 C 
BRANCH   6   7
ATOM      7  C           0     134.582 132.157 143.876  0.00  0.00     0.151 C 
ATOM      8  N           0     133.948 133.032 144.858  0.00  0.00    -0.218 N 
ATOM      9  C           0     134.748 133.635 145.812  0.00  0.00     0.672 C 
ATOM     10  H           0     132.990 133.187 144.842  0.00  0.00     0.178 HD
ATOM     11  N           0     134.439 134.779 146.355  0.00  0.00    -0.235 N 
ATOM     12  N           0     135.890 132.955 146.147  0.00  0.00    -0.183 N 
ATOM     13  H           0     133.625 135.236 146.092  0.00  0.00     0.174 HD
ATOM     14  H           0     135.022 135.172 147.024  0.00  0.00     0.174 HD
ATOM     15  C           0     136.267 131.610 145.708  0.00  0.00     0.217 C 
ATOM     16  C           0     137.020 133.429 146.965  0.00  0.00     0.150 C 
ATOM     17  C           0     135.470 131.108 144.515  0.00  0.00     0.180 C 
ATOM     18  C           0     137.773 131.687 145.402  0.00  0.00     0.209 C 
ATOM     19  N           0     136.023 130.621 146.771  0.00  0.00    -0.191 N 
ATOM     20  N           0     134.624 130.035 145.080  0.00  0.00    -0.216 N 
ATOM     21  C           0     135.178 129.658 146.278  0.00  0.00     0.670 C 
ATOM     22  H           0     133.824 129.664 144.677  0.00  0.00     0.178 HD
ATOM     23  N           0     134.931 128.526 146.876  0.00  0.00    -0.235 N 
ATOM     24  H           0     134.322 127.888 146.473  0.00  0.00     0.174 HD
ATOM     25  H           0     135.357 128.322 147.723  0.00  0.00     0.174 HD
ATOM     26  C           0     138.274 132.895 146.234  0.00  0.00     0.093 C 
ATOM     27  H           0     136.397 130.644 147.665  0.00  0.00     0.180 HD
BRANCH  18  28
ATOM     28  O           0     138.432 130.490 145.815  0.00  0.00    -0.362 OA
ATOM     29  H           0     138.908 130.699 146.630  0.00  0.00     0.213 HD
ENDBRANCH  18  28
BRANCH  18  30
ATOM     30  O           0     137.985 131.920 144.008  0.00  0.00    -0.362 OA
ATOM     31  H           0     138.801 132.433 143.932  0.00  0.00     0.213 HD
ENDBRANCH  18  30
ENDBRANCH   6   7
ENDBRANCH   5   6
ENDBRANCH   1   5
BRANCH   2  32
ATOM     32  C           0     133.250 135.251 139.289  0.00  0.00     0.125 C 
BRANCH  32  33
ATOM     33  C           0     133.212 135.170 137.761  0.00  0.00     0.020 C 
BRANCH  33  34
ATOM     34  C           0     134.629 135.329 137.207  0.00  0.00     0.002 C 
BRANCH  34  35
ATOM     35  C           0     134.589 135.270 135.679  0.00  0.00     0.002 C 
BRANCH  35  36
ATOM     36  C           0     133.281 134.618 135.227  0.00  0.00     0.020 C 
BRANCH  36  37
ATOM     37  C           0     132.688 135.416 134.065  0.00  0.00     0.122 C 
BRANCH  37  38
ATOM     38  N           0     131.351 134.906 133.754  0.00  0.00    -0.361 N 
ATOM     39  C           0     131.140 134.212 132.618  0.00  0.00     0.221 C 
ATOM     40  O           0     132.058 134.011 131.852  0.00  0.00    -0.273 OA
ATOM     41  H           0     130.616 135.066 134.367  0.00  0.00     0.162 HD
BRANCH  39  42
ATOM     42  C           0     129.764 133.687 132.300  0.00  0.00     0.141 C 
BRANCH  42  43
ATOM     43  C           0     129.789 132.179 132.301  0.00  0.00    -0.049 A 
ATOM     44  C           0     129.396 131.484 131.171  0.00  0.00     0.008 A 
ATOM     45  C           0     129.422 130.104 131.163  0.00  0.00     0.016 A 
ATOM     46  C           0     129.836 129.410 132.302  0.00  0.00     0.015 A 
ATOM     47  C           0     130.227 130.120 133.441  0.00  0.00     0.016 A 
ATOM     48  C           0     130.201 131.498 133.433  0.00  0.00     0.008 A 
BRANCH  46  49
ATOM     49  C           0     129.861 127.933 132.304  0.00  0.00     0.192 C 
ATOM     50  O           0     128.821 127.308 132.235  0.00  0.00    -0.287 OA
BRANCH  49  51
ATOM     51  C           0     131.149 127.216 132.393  0.00  0.00     0.015 A 
ATOM     52  C           0     132.312 127.795 131.877  0.00  0.00     0.015 A 
ATOM     53  C           0     133.512 127.122 131.968  0.00  0.00     0.001 A 
ATOM     54  C           0     133.565 125.871 132.559  0.00  0.00     0.000 A 
ATOM     55  C           0     132.416 125.289 133.065  0.00  0.00     0.001 A 
ATOM     56  C           0     131.211 125.953 132.987  0.00  0.00     0.015 A 
ENDBRANCH  49  51
ENDBRANCH  46  49
ENDBRANCH  42  43
ENDBRANCH  39  42
ENDBRANCH  37  38
ENDBRANCH  36  37
ENDBRANCH  35  36
ENDBRANCH  34  35
ENDBRANCH  33  34
ENDBRANCH  32  33
ENDBRANCH   2  32
TORSDOF 16
ENDMDL
MODEL 3
REMARK VINA RESULT:      -9.0      2.574      3.866
REMARK  16 active torsions:
REMARK  status: ('A' for Active; 'I' for Inactive)
REMARK    1  A    between atoms: C_6  and  C_7 
REMARK    2  A    between atoms: C_7  and  O_8 
REMARK    3  A    between atoms: O_8  and  C_9 
REMARK       I    between atoms: C_9  and  N_10 
REMARK    4  A    between atoms: N_10  and  C_11 
REMARK    5  A    between atoms: C_11  and  C_12 
REMARK    6  A    between atoms: C_12  and  C_13 
REMARK    7  A    between atoms: C_13  and  C_14 
REMARK    8  A    between atoms: C_14  and  C_15 
REMARK    9  A    between atoms: C_15  and  C_16 
REMARK   10  A    between atoms: C_16  and  N_17 
REMARK       I    between atoms: N_17  and  C_18 
REMARK   11  A    between atoms: C_18  and  C_19 
REMARK   12  A    between atoms: C_19  and  C_20 
REMARK   13  A    between atoms: C_23  and  C_24 
REMARK   14  A    between atoms: C_24  and  C_25 
REMARK   15  A    between atoms: C_47  and  O_48 
REMARK   16  A    between atoms: C_47  and  O_49 
ROOT
ATOM      1  C           0     134.210 133.881 141.281  0.00  0.00     0.360 C 
ATOM      2  N           0     134.188 134.214 139.975  0.00  0.00    -0.337 N 
ATOM      3  O           0     133.330 134.272 142.022  0.00  0.00    -0.239 OA
ATOM      4  H           0     134.890 133.902 139.383  0.00  0.00     0.164 HD
ENDROOT
BRANCH   1   5
ATOM      5  O           0     135.206 133.115 141.764  0.00  0.00    -0.302 OA
BRANCH   5   6
ATOM      6  C           0     135.583 133.211 143.163  0.00  0.00     0.208 C 
BRANCH   6   7
ATOM      7  C           0     134.684 132.295 143.997  0.00  0.00     0.151 C 
ATOM      8  N           0     134.015 133.095 145.019  0.00  0.00    -0.218 N 
ATOM      9  C           0     134.777 133.608 146.054  0.00  0.00     0.672 C 
ATOM     10  H           0     133.060 133.263 144.973  0.00  0.00     0.178 HD
ATOM     11  N           0     134.455 134.708 146.674  0.00  0.00    -0.235 N 
ATOM     12  N           0     135.895 132.888 146.382  0.00  0.00    -0.183 N 
ATOM     13  H           0     133.657 135.195 146.414  0.00  0.00     0.174 HD
ATOM     14  H           0     135.010 135.038 147.399  0.00  0.00     0.174 HD
ATOM     15  C           0     136.280 131.579 145.851  0.00  0.00     0.217 C 
ATOM     16  C           0     136.992 133.280 147.285  0.00  0.00     0.150 C 
ATOM     17  C           0     135.533 131.186 144.587  0.00  0.00     0.180 C 
ATOM     18  C           0     137.798 131.661 145.619  0.00  0.00     0.209 C 
ATOM     19  N           0     135.978 130.510 146.818  0.00  0.00    -0.191 N 
ATOM     20  N           0     134.653 130.081 145.024  0.00  0.00    -0.216 N 
ATOM     21  C           0     135.148 129.601 146.211  0.00  0.00     0.670 C 
ATOM     22  H           0     133.868 129.755 144.557  0.00  0.00     0.178 HD
ATOM     23  N           0     134.864 128.428 146.702  0.00  0.00    -0.235 N 
ATOM     24  H           0     134.268 127.832 146.222  0.00  0.00     0.174 HD
ATOM     25  H           0     135.249 128.150 147.548  0.00  0.00     0.174 HD
ATOM     26  C           0     138.273 132.791 146.569  0.00  0.00     0.093 C 
ATOM     27  H           0     136.313 130.455 147.727  0.00  0.00     0.180 HD
BRANCH  18  28
ATOM     28  O           0     138.428 130.426 145.962  0.00  0.00    -0.362 OA
ATOM     29  H           0     139.274 130.404 145.495  0.00  0.00     0.213 HD
ENDBRANCH  18  28
BRANCH  18  30
ATOM     30  O           0     138.075 132.004 144.260  0.00  0.00    -0.362 OA
ATOM     31  H           0     137.545 131.410 143.709  0.00  0.00     0.213 HD
ENDBRANCH  18  30
ENDBRANCH   6   7
ENDBRANCH   5   6
ENDBRANCH   1   5
BRANCH   2  32
ATOM     32  C           0     133.104 135.047 139.450  0.00  0.00     0.125 C 
BRANCH  32  33
ATOM     33  C           0     133.195 135.098 137.923  0.00  0.00     0.020 C 
BRANCH  33  34
ATOM     34  C           0     134.646 135.348 137.507  0.00  0.00     0.002 C 
BRANCH  34  35
ATOM     35  C           0     134.771 135.223 135.988  0.00  0.00     0.002 C 
BRANCH  35  36
ATOM     36  C           0     133.398 135.429 135.344  0.00  0.00     0.020 C 
BRANCH  36  37
ATOM     37  C           0     133.573 135.743 133.858  0.00  0.00     0.122 C 
BRANCH  37  38
ATOM     38  N           0     134.655 134.922 133.310  0.00  0.00    -0.361 N 
ATOM     39  C           0     134.373 133.907 132.469  0.00  0.00     0.221 C 
ATOM     40  O           0     133.223 133.673 132.166  0.00  0.00    -0.273 OA
ATOM     41  H           0     135.576 135.109 133.552  0.00  0.00     0.162 HD
BRANCH  39  42
ATOM     42  C           0     135.487 133.063 131.905  0.00  0.00     0.141 C 
BRANCH  42  43
ATOM     43  C           0     135.120 131.605 132.018  0.00  0.00    -0.049 A 
ATOM     44  C           0     135.047 131.009 133.265  0.00  0.00     0.008 A 
ATOM     45  C           0     134.706 129.677 133.376  0.00  0.00     0.016 A 
ATOM     46  C           0     134.445 128.927 132.227  0.00  0.00     0.015 A 
ATOM     47  C           0     134.526 129.536 130.971  0.00  0.00     0.016 A 
ATOM     48  C           0     134.862 130.870 130.875  0.00  0.00     0.008 A 
BRANCH  46  49
ATOM     49  C           0     134.086 127.499 132.337  0.00  0.00     0.192 C 
ATOM     50  O           0     134.947 126.671 132.557  0.00  0.00    -0.287 OA
BRANCH  49  51
ATOM     51  C           0     132.679 127.076 132.175  0.00  0.00     0.015 A 
ATOM     52  C           0     132.210 125.935 132.830  0.00  0.00     0.015 A 
ATOM     53  C           0     130.895 125.549 132.679  0.00  0.00     0.001 A 
ATOM     54  C           0     130.042 126.284 131.872  0.00  0.00     0.000 A 
ATOM     55  C           0     130.503 127.412 131.216  0.00  0.00     0.001 A 
ATOM     56  C           0     131.814 127.813 131.363  0.00  0.00     0.015 A 
ENDBRANCH  49  51
ENDBRANCH  46  49
ENDBRANCH  42  43
ENDBRANCH  39  42
ENDBRANCH  37  38
ENDBRANCH  36  37
ENDBRANCH  35  36
ENDBRANCH  34  35
ENDBRANCH  33  34
ENDBRANCH  32  33
ENDBRANCH   2  32
TORSDOF 16
ENDMDL
MODEL 4
REMARK VINA RESULT:      -8.7      1.944      3.126
REMARK  16 active torsions:
REMARK  status: ('A' for Active; 'I' for Inactive)
REMARK    1  A    between atoms: C_6  and  C_7 
REMARK    2  A    between atoms: C_7  and  O_8 
REMARK    3  A    between atoms: O_8  and  C_9 
REMARK       I    between atoms: C_9  and  N_10 
REMARK    4  A    between atoms: N_10  and  C_11 
REMARK    5  A    between atoms: C_11  and  C_12 
REMARK    6  A    between atoms: C_12  and  C_13 
REMARK    7  A    between atoms: C_13  and  C_14 
REMARK    8  A    between atoms: C_14  and  C_15 
REMARK    9  A    between atoms: C_15  and  C_16 
REMARK   10  A    between atoms: C_16  and  N_17 
REMARK       I    between atoms: N_17  and  C_18 
REMARK   11  A    between atoms: C_18  and  C_19 
REMARK   12  A    between atoms: C_19  and  C_20 
REMARK   13  A    between atoms: C_23  and  C_24 
REMARK   14  A    between atoms: C_24  and  C_25 
REMARK   15  A    between atoms: C_47  and  O_48 
REMARK   16  A    between atoms: C_47  and  O_49 
ROOT
ATOM      1  C           0     133.824 133.612 141.068  0.00  0.00     0.360 C 
ATOM      2  N           0     134.153 134.342 139.983  0.00  0.00    -0.337 N 
ATOM      3  O           0     132.687 133.637 141.494  0.00  0.00    -0.239 OA
ATOM      4  H           0     135.061 134.321 139.642  0.00  0.00     0.164 HD
ENDROOT
BRANCH   1   5
ATOM      5  O           0     134.756 132.855 141.677  0.00  0.00    -0.302 OA
BRANCH   5   6
ATOM      6  C           0     135.084 133.091 143.072  0.00  0.00     0.208 C 
BRANCH   6   7
ATOM      7  C           0     136.386 132.366 143.419  0.00  0.00     0.151 C 
ATOM      8  N           0     136.074 130.988 143.788  0.00  0.00    -0.218 N 
ATOM      9  C           0     135.407 130.763 144.979  0.00  0.00     0.672 C 
ATOM     10  H           0     136.328 130.249 143.213  0.00  0.00     0.178 HD
ATOM     11  N           0     134.631 129.731 145.156  0.00  0.00    -0.235 N 
ATOM     12  N           0     135.610 131.698 145.960  0.00  0.00    -0.183 N 
ATOM     13  H           0     134.506 129.090 144.439  0.00  0.00     0.174 HD
ATOM     14  H           0     134.181 129.601 146.006  0.00  0.00     0.174 HD
ATOM     15  C           0     136.557 132.814 145.923  0.00  0.00     0.217 C 
ATOM     16  C           0     134.893 131.838 147.240  0.00  0.00     0.150 C 
ATOM     17  C           0     137.084 133.124 144.531  0.00  0.00     0.180 C 
ATOM     18  C           0     135.805 134.009 146.533  0.00  0.00     0.209 C 
ATOM     19  N           0     137.755 132.514 146.724  0.00  0.00    -0.191 N 
ATOM     20  N           0     138.501 132.708 144.587  0.00  0.00    -0.216 N 
ATOM     21  C           0     138.856 132.621 145.911  0.00  0.00     0.670 C 
ATOM     22  H           0     139.077 132.529 143.827  0.00  0.00     0.178 HD
ATOM     23  N           0     140.086 132.638 146.342  0.00  0.00    -0.235 N 
ATOM     24  H           0     140.820 132.715 145.713  0.00  0.00     0.174 HD
ATOM     25  H           0     140.267 132.572 147.293  0.00  0.00     0.174 HD
ATOM     26  C           0     134.699 133.364 147.406  0.00  0.00     0.093 C 
ATOM     27  H           0     137.766 132.284 147.666  0.00  0.00     0.180 HD
BRANCH  18  28
ATOM     28  O           0     136.682 134.796 147.341  0.00  0.00    -0.362 OA
ATOM     29  H           0     137.583 134.529 147.117  0.00  0.00     0.213 HD
ENDBRANCH  18  28
BRANCH  18  30
ATOM     30  O           0     135.223 134.808 145.502  0.00  0.00    -0.362 OA
ATOM     31  H           0     134.278 134.602 145.488  0.00  0.00     0.213 HD
ENDBRANCH  18  30
ENDBRANCH   6   7
ENDBRANCH   5   6
ENDBRANCH   1   5
BRANCH   2  32
ATOM     32  C           0     133.139 135.165 139.319  0.00  0.00     0.125 C 
BRANCH  32  33
ATOM     33  C           0     133.194 134.921 137.810  0.00  0.00     0.020 C 
BRANCH  33  34
ATOM     34  C           0     134.562 135.348 137.274  0.00  0.00     0.002 C 
BRANCH  34  35
ATOM     35  C           0     134.541 135.326 135.744  0.00  0.00     0.002 C 
BRANCH  35  36
ATOM     36  C           0     133.269 134.627 135.261  0.00  0.00     0.020 C 
BRANCH  36  37
ATOM     37  C           0     132.614 135.464 134.161  0.00  0.00     0.122 C 
BRANCH  37  38
ATOM     38  N           0     131.281 134.931 133.870  0.00  0.00    -0.361 N 
ATOM     39  C           0     131.069 134.223 132.743  0.00  0.00     0.221 C 
ATOM     40  O           0     131.982 134.027 131.969  0.00  0.00    -0.273 OA
ATOM     41  H           0     130.550 135.086 134.489  0.00  0.00     0.162 HD
BRANCH  39  42
ATOM     42  C           0     129.698 133.673 132.445  0.00  0.00     0.141 C 
BRANCH  42  43
ATOM     43  C           0     129.761 132.168 132.389  0.00  0.00    -0.049 A 
ATOM     44  C           0     129.373 131.505 131.238  0.00  0.00     0.008 A 
ATOM     45  C           0     129.433 130.128 131.178  0.00  0.00     0.016 A 
ATOM     46  C           0     129.878 129.402 132.285  0.00  0.00     0.015 A 
ATOM     47  C           0     130.264 130.079 133.446  0.00  0.00     0.016 A 
ATOM     48  C           0     130.203 131.455 133.490  0.00  0.00     0.008 A 
BRANCH  46  49
ATOM     49  C           0     129.940 127.927 132.231  0.00  0.00     0.192 C 
ATOM     50  O           0     128.919 127.281 132.109  0.00  0.00    -0.287 OA
BRANCH  49  51
ATOM     51  C           0     131.243 127.239 132.330  0.00  0.00     0.015 A 
ATOM     52  C           0     132.393 127.834 131.805  0.00  0.00     0.015 A 
ATOM     53  C           0     133.607 127.188 131.905  0.00  0.00     0.001 A 
ATOM     54  C           0     133.687 125.947 132.515  0.00  0.00     0.000 A 
ATOM     55  C           0     132.550 125.350 133.031  0.00  0.00     0.001 A 
ATOM     56  C           0     131.331 125.987 132.944  0.00  0.00     0.015 A 
ENDBRANCH  49  51
ENDBRANCH  46  49
ENDBRANCH  42  43
ENDBRANCH  39  42
ENDBRANCH  37  38
ENDBRANCH  36  37
ENDBRANCH  35  36
ENDBRANCH  34  35
ENDBRANCH  33  34
ENDBRANCH  32  33
ENDBRANCH   2  32
TORSDOF 16
ENDMDL
MODEL 5
REMARK VINA RESULT:      -8.5      3.186     13.032
REMARK  16 active torsions:
REMARK  status: ('A' for Active; 'I' for Inactive)
REMARK    1  A    between atoms: C_6  and  C_7 
REMARK    2  A    between atoms: C_7  and  O_8 
REMARK    3  A    between atoms: O_8  and  C_9 
REMARK       I    between atoms: C_9  and  N_10 
REMARK    4  A    between atoms: N_10  and  C_11 
REMARK    5  A    between atoms: C_11  and  C_12 
REMARK    6  A    between atoms: C_12  and  C_13 
REMARK    7  A    between atoms: C_13  and  C_14 
REMARK    8  A    between atoms: C_14  and  C_15 
REMARK    9  A    between atoms: C_15  and  C_16 
REMARK   10  A    between atoms: C_16  and  N_17 
REMARK       I    between atoms: N_17  and  C_18 
REMARK   11  A    between atoms: C_18  and  C_19 
REMARK   12  A    between atoms: C_19  and  C_20 
REMARK   13  A    between atoms: C_23  and  C_24 
REMARK   14  A    between atoms: C_24  and  C_25 
REMARK   15  A    between atoms: C_47  and  O_48 
REMARK   16  A    between atoms: C_47  and  O_49 
ROOT
ATOM      1  C           0     133.428 135.353 136.698  0.00  0.00     0.360 C 
ATOM      2  N           0     132.673 135.621 137.783  0.00  0.00    -0.337 N 
ATOM      3  O           0     134.584 135.006 136.833  0.00  0.00    -0.239 OA
ATOM      4  H           0     131.750 135.897 137.675  0.00  0.00     0.164 HD
ENDROOT
BRANCH   1   5
ATOM      5  O           0     132.899 135.469 135.466  0.00  0.00    -0.302 OA
BRANCH   5   6
ATOM      6  C           0     131.633 134.829 135.156  0.00  0.00     0.208 C 
BRANCH   6   7
ATOM      7  C           0     131.863 133.337 134.904  0.00  0.00     0.151 C 
ATOM      8  N           0     132.958 133.183 133.951  0.00  0.00    -0.218 N 
ATOM      9  C           0     132.744 133.567 132.639  0.00  0.00     0.672 C 
ATOM     10  H           0     133.814 132.821 134.230  0.00  0.00     0.178 HD
ATOM     11  N           0     133.711 133.980 131.870  0.00  0.00    -0.235 N 
ATOM     12  N           0     131.448 133.489 132.201  0.00  0.00    -0.183 N 
ATOM     13  H           0     134.617 134.026 132.213  0.00  0.00     0.174 HD
ATOM     14  H           0     133.527 134.237 130.952  0.00  0.00     0.174 HD
ATOM     15  C           0     130.312 132.916 132.926  0.00  0.00     0.217 C 
ATOM     16  C           0     130.884 134.010 130.942  0.00  0.00     0.150 C 
ATOM     17  C           0     130.568 132.721 134.411  0.00  0.00     0.180 C 
ATOM     18  C           0     129.136 133.873 132.666  0.00  0.00     0.209 C 
ATOM     19  N           0     129.986 131.573 132.417  0.00  0.00    -0.191 N 
ATOM     20  N           0     130.638 131.252 134.569  0.00  0.00    -0.216 N 
ATOM     21  C           0     130.051 130.688 133.464  0.00  0.00     0.670 C 
ATOM     22  H           0     131.028 130.774 135.317  0.00  0.00     0.178 HD
ATOM     23  N           0     129.610 129.463 133.414  0.00  0.00    -0.235 N 
ATOM     24  H           0     129.687 128.887 134.191  0.00  0.00     0.174 HD
ATOM     25  H           0     129.204 129.126 132.600  0.00  0.00     0.174 HD
ATOM     26  C           0     129.515 134.602 131.351  0.00  0.00     0.093 C 
ATOM     27  H           0     129.760 131.353 131.500  0.00  0.00     0.180 HD
BRANCH  18  28
ATOM     28  O           0     127.920 133.143 132.499  0.00  0.00    -0.362 OA
ATOM     29  H           0     127.940 132.766 131.609  0.00  0.00     0.213 HD
ENDBRANCH  18  28
BRANCH  18  30
ATOM     30  O           0     129.013 134.811 133.737  0.00  0.00    -0.362 OA
ATOM     31  H           0     129.094 135.693 133.348  0.00  0.00     0.213 HD
ENDBRANCH  18  30
ENDBRANCH   6   7
ENDBRANCH   5   6
ENDBRANCH   1   5
BRANCH   2  32
ATOM     32  C           0     133.249 135.494 139.124  0.00  0.00     0.125 C 
BRANCH  32  33
ATOM     33  C           0     132.749 134.200 139.771  0.00  0.00     0.020 C 
BRANCH  33  34
ATOM     34  C           0     133.640 133.851 140.966  0.00  0.00     0.002 C 
BRANCH  34  35
ATOM     35  C           0     133.066 132.632 141.691  0.00  0.00     0.002 C 
BRANCH  35  36
ATOM     36  C           0     134.204 131.848 142.350  0.00  0.00     0.020 C 
BRANCH  36  37
ATOM     37  C           0     135.542 132.495 141.992  0.00  0.00     0.122 C 
BRANCH  37  38
ATOM     38  N           0     136.494 132.285 143.085  0.00  0.00    -0.361 N 
ATOM     39  C           0     136.873 133.322 143.858  0.00  0.00     0.221 C 
ATOM     40  O           0     136.428 134.430 143.647  0.00  0.00    -0.273 OA
ATOM     41  H           0     136.851 131.399 143.255  0.00  0.00     0.162 HD
BRANCH  39  42
ATOM     42  C           0     137.851 133.105 144.984  0.00  0.00     0.141 C 
BRANCH  42  43
ATOM     43  C           0     137.292 132.088 145.946  0.00  0.00    -0.049 A 
ATOM     44  C           0     136.047 132.290 146.514  0.00  0.00     0.008 A 
ATOM     45  C           0     135.527 131.360 147.391  0.00  0.00     0.016 A 
ATOM     46  C           0     136.264 130.219 147.712  0.00  0.00     0.015 A 
ATOM     47  C           0     137.524 130.024 147.138  0.00  0.00     0.016 A 
ATOM     48  C           0     138.029 130.959 146.259  0.00  0.00     0.008 A 
BRANCH  46  49
ATOM     49  C           0     135.718 129.222 148.655  0.00  0.00     0.192 C 
ATOM     50  O           0     136.411 128.794 149.557  0.00  0.00    -0.287 OA
BRANCH  49  51
ATOM     51  C           0     134.329 128.742 148.500  0.00  0.00     0.015 A 
ATOM     52  C           0     133.982 127.934 147.414  0.00  0.00     0.015 A 
ATOM     53  C           0     132.686 127.487 147.278  0.00  0.00     0.001 A 
ATOM     54  C           0     131.724 127.845 148.208  0.00  0.00     0.000 A 
ATOM     55  C           0     132.060 128.650 149.282  0.00  0.00     0.001 A 
ATOM     56  C           0     133.354 129.100 149.434  0.00  0.00     0.015 A 
ENDBRANCH  49  51
ENDBRANCH  46  49
ENDBRANCH  42  43
ENDBRANCH  39  42
ENDBRANCH  37  38
ENDBRANCH  36  37
ENDBRANCH  35  36
ENDBRANCH  34  35
ENDBRANCH  33  34
ENDBRANCH  32  33
ENDBRANCH   2  32
TORSDOF 16
ENDMDL
MODEL 6
REMARK VINA RESULT:      -8.4      3.279     12.829
REMARK  16 active torsions:
REMARK  status: ('A' for Active; 'I' for Inactive)
REMARK    1  A    between atoms: C_6  and  C_7 
REMARK    2  A    between atoms: C_7  and  O_8 
REMARK    3  A    between atoms: O_8  and  C_9 
REMARK       I    between atoms: C_9  and  N_10 
REMARK    4  A    between atoms: N_10  and  C_11 
REMARK    5  A    between atoms: C_11  and  C_12 
REMARK    6  A    between atoms: C_12  and  C_13 
REMARK    7  A    between atoms: C_13  and  C_14 
REMARK    8  A    between atoms: C_14  and  C_15 
REMARK    9  A    between atoms: C_15  and  C_16 
REMARK   10  A    between atoms: C_16  and  N_17 
REMARK       I    between atoms: N_17  and  C_18 
REMARK   11  A    between atoms: C_18  and  C_19 
REMARK   12  A    between atoms: C_19  and  C_20 
REMARK   13  A    between atoms: C_23  and  C_24 
REMARK   14  A    between atoms: C_24  and  C_25 
REMARK   15  A    between atoms: C_47  and  O_48 
REMARK   16  A    between atoms: C_47  and  O_49 
ROOT
ATOM      1  C           0     133.889 135.365 136.249  0.00  0.00     0.360 C 
ATOM      2  N           0     133.403 135.577 137.489  0.00  0.00    -0.337 N 
ATOM      3  O           0     134.830 134.614 136.087  0.00  0.00    -0.239 OA
ATOM      4  H           0     132.651 136.176 137.619  0.00  0.00     0.164 HD
ENDROOT
BRANCH   1   5
ATOM      5  O           0     133.330 135.983 135.193  0.00  0.00    -0.302 OA
BRANCH   5   6
ATOM      6  C           0     132.875 135.205 134.054  0.00  0.00     0.208 C 
BRANCH   6   7
ATOM      7  C           0     131.349 135.279 133.963  0.00  0.00     0.151 C 
ATOM      8  N           0     130.779 134.844 135.235  0.00  0.00    -0.218 N 
ATOM      9  C           0     130.886 133.508 135.578  0.00  0.00     0.672 C 
ATOM     10  H           0     130.338 135.475 135.824  0.00  0.00     0.178 HD
ATOM     11  N           0     130.924 133.111 136.819  0.00  0.00    -0.235 N 
ATOM     12  N           0     130.953 132.628 134.530  0.00  0.00    -0.183 N 
ATOM     13  H           0     130.877 133.761 137.537  0.00  0.00     0.174 HD
ATOM     14  H           0     130.994 132.165 137.024  0.00  0.00     0.174 HD
ATOM     15  C           0     130.784 132.944 133.110  0.00  0.00     0.217 C 
ATOM     16  C           0     131.268 131.189 134.573  0.00  0.00     0.150 C 
ATOM     17  C           0     130.889 134.428 132.795  0.00  0.00     0.180 C 
ATOM     18  C           0     131.859 132.123 132.377  0.00  0.00     0.209 C 
ATOM     19  N           0     129.446 132.551 132.639  0.00  0.00    -0.191 N 
ATOM     20  N           0     129.509 134.811 132.428  0.00  0.00    -0.216 N 
ATOM     21  C           0     128.827 133.661 132.120  0.00  0.00     0.670 C 
ATOM     22  H           0     129.151 135.712 132.408  0.00  0.00     0.178 HD
ATOM     23  N           0     127.727 133.626 131.422  0.00  0.00    -0.235 N 
ATOM     24  H           0     127.341 134.449 131.083  0.00  0.00     0.174 HD
ATOM     25  H           0     127.295 132.777 131.240  0.00  0.00     0.174 HD
ATOM     26  C           0     132.183 130.959 133.347  0.00  0.00     0.093 C 
ATOM     27  H           0     129.067 131.658 132.684  0.00  0.00     0.180 HD
BRANCH  18  28
ATOM     28  O           0     131.350 131.616 131.143  0.00  0.00    -0.362 OA
ATOM     29  H           0     130.445 131.322 131.313  0.00  0.00     0.213 HD
ENDBRANCH  18  28
BRANCH  18  30
ATOM     30  O           0     133.022 132.920 132.149  0.00  0.00    -0.362 OA
ATOM     31  H           0     133.007 133.632 132.804  0.00  0.00     0.213 HD
ENDBRANCH  18  30
ENDBRANCH   6   7
ENDBRANCH   5   6
ENDBRANCH   1   5
BRANCH   2  32
ATOM     32  C           0     134.011 134.903 138.639  0.00  0.00     0.125 C 
BRANCH  32  33
ATOM     33  C           0     132.917 134.505 139.632  0.00  0.00     0.020 C 
BRANCH  33  34
ATOM     34  C           0     133.545 134.229 141.000  0.00  0.00     0.002 C 
BRANCH  34  35
ATOM     35  C           0     133.002 132.912 141.555  0.00  0.00     0.002 C 
BRANCH  35  36
ATOM     36  C           0     134.149 132.102 142.163  0.00  0.00     0.020 C 
BRANCH  36  37
ATOM     37  C           0     135.485 132.719 141.747  0.00  0.00     0.122 C 
BRANCH  37  38
ATOM     38  N           0     136.489 132.449 142.778  0.00  0.00    -0.361 N 
ATOM     39  C           0     136.777 133.387 143.702  0.00  0.00     0.221 C 
ATOM     40  O           0     136.205 134.456 143.679  0.00  0.00    -0.273 OA
ATOM     41  H           0     136.947 131.593 142.798  0.00  0.00     0.162 HD
BRANCH  39  42
ATOM     42  C           0     137.810 133.108 144.763  0.00  0.00     0.141 C 
BRANCH  42  43
ATOM     43  C           0     137.258 132.113 145.753  0.00  0.00    -0.049 A 
ATOM     44  C           0     138.039 131.049 146.167  0.00  0.00     0.008 A 
ATOM     45  C           0     137.542 130.138 147.076  0.00  0.00     0.016 A 
ATOM     46  C           0     136.244 130.287 147.571  0.00  0.00     0.015 A 
ATOM     47  C           0     135.460 131.362 147.143  0.00  0.00     0.016 A 
ATOM     48  C           0     135.971 132.267 146.239  0.00  0.00     0.008 A 
BRANCH  46  49
ATOM     49  C           0     135.702 129.312 148.539  0.00  0.00     0.192 C 
ATOM     50  O           0     136.395 128.916 149.455  0.00  0.00    -0.287 OA
BRANCH  49  51
ATOM     51  C           0     134.317 128.817 148.392  0.00  0.00     0.015 A 
ATOM     52  C           0     133.338 129.187 149.318  0.00  0.00     0.015 A 
ATOM     53  C           0     132.047 128.725 149.171  0.00  0.00     0.001 A 
ATOM     54  C           0     131.722 127.888 148.117  0.00  0.00     0.000 A 
ATOM     55  C           0     132.689 127.513 147.201  0.00  0.00     0.001 A 
ATOM     56  C           0     133.983 127.972 147.332  0.00  0.00     0.015 A 
ENDBRANCH  49  51
ENDBRANCH  46  49
ENDBRANCH  42  43
ENDBRANCH  39  42
ENDBRANCH  37  38
ENDBRANCH  36  37
ENDBRANCH  35  36
ENDBRANCH  34  35
ENDBRANCH  33  34
ENDBRANCH  32  33
ENDBRANCH   2  32
TORSDOF 16
ENDMDL
MODEL 7
REMARK VINA RESULT:      -8.4      2.543      4.338
REMARK  16 active torsions:
REMARK  status: ('A' for Active; 'I' for Inactive)
REMARK    1  A    between atoms: C_6  and  C_7 
REMARK    2  A    between atoms: C_7  and  O_8 
REMARK    3  A    between atoms: O_8  and  C_9 
REMARK       I    between atoms: C_9  and  N_10 
REMARK    4  A    between atoms: N_10  and  C_11 
REMARK    5  A    between atoms: C_11  and  C_12 
REMARK    6  A    between atoms: C_12  and  C_13 
REMARK    7  A    between atoms: C_13  and  C_14 
REMARK    8  A    between atoms: C_14  and  C_15 
REMARK    9  A    between atoms: C_15  and  C_16 
REMARK   10  A    between atoms: C_16  and  N_17 
REMARK       I    between atoms: N_17  and  C_18 
REMARK   11  A    between atoms: C_18  and  C_19 
REMARK   12  A    between atoms: C_19  and  C_20 
REMARK   13  A    between atoms: C_23  and  C_24 
REMARK   14  A    between atoms: C_24  and  C_25 
REMARK   15  A    between atoms: C_47  and  O_48 
REMARK   16  A    between atoms: C_47  and  O_49 
ROOT
ATOM      1  C           0     133.736 133.521 141.693  0.00  0.00     0.360 C 
ATOM      2  N           0     133.923 134.358 140.653  0.00  0.00    -0.337 N 
ATOM      3  O           0     132.764 132.792 141.719  0.00  0.00    -0.239 OA
ATOM      4  H           0     134.699 134.939 140.632  0.00  0.00     0.164 HD
ENDROOT
BRANCH   1   5
ATOM      5  O           0     134.626 133.493 142.703  0.00  0.00    -0.302 OA
BRANCH   5   6
ATOM      6  C           0     134.518 132.480 143.737  0.00  0.00     0.208 C 
BRANCH   6   7
ATOM      7  C           0     135.890 131.842 143.971  0.00  0.00     0.151 C 
ATOM      8  N           0     135.701 130.524 144.571  0.00  0.00    -0.218 N 
ATOM      9  C           0     135.235 130.457 145.872  0.00  0.00     0.672 C 
ATOM     10  H           0     135.896 129.717 144.070  0.00  0.00     0.178 HD
ATOM     11  N           0     134.543 129.443 146.310  0.00  0.00    -0.235 N 
ATOM     12  N           0     135.544 131.527 146.670  0.00  0.00    -0.183 N 
ATOM     13  H           0     134.339 128.703 145.717  0.00  0.00     0.174 HD
ATOM     14  H           0     134.235 129.426 147.231  0.00  0.00     0.174 HD
ATOM     15  C           0     136.423 132.648 146.330  0.00  0.00     0.217 C 
ATOM     16  C           0     135.027 131.833 148.016  0.00  0.00     0.150 C 
ATOM     17  C           0     136.715 132.768 144.843  0.00  0.00     0.180 C 
ATOM     18  C           0     135.720 133.900 146.881  0.00  0.00     0.209 C 
ATOM     19  N           0     137.742 132.494 146.964  0.00  0.00    -0.191 N 
ATOM     20  N           0     138.142 132.396 144.731  0.00  0.00    -0.216 N 
ATOM     21  C           0     138.699 132.508 145.980  0.00  0.00     0.670 C 
ATOM     22  H           0     138.601 132.124 143.921  0.00  0.00     0.178 HD
ATOM     23  N           0     139.978 132.614 146.205  0.00  0.00    -0.235 N 
ATOM     24  H           0     140.603 132.618 145.463  0.00  0.00     0.174 HD
ATOM     25  H           0     140.306 132.690 147.115  0.00  0.00     0.174 HD
ATOM     26  C           0     134.791 133.362 147.999  0.00  0.00     0.093 C 
ATOM     27  H           0     137.908 132.401 147.916  0.00  0.00     0.180 HD
BRANCH  18  28
ATOM     28  O           0     136.674 134.815 147.423  0.00  0.00    -0.362 OA
ATOM     29  H           0     136.174 135.489 147.902  0.00  0.00     0.213 HD
ENDBRANCH  18  28
BRANCH  18  30
ATOM     30  O           0     134.952 134.530 145.854  0.00  0.00    -0.362 OA
ATOM     31  H           0     134.189 133.959 145.686  0.00  0.00     0.213 HD
ENDBRANCH  18  30
ENDBRANCH   6   7
ENDBRANCH   5   6
ENDBRANCH   1   5
BRANCH   2  32
ATOM     32  C           0     132.955 134.387 139.554  0.00  0.00     0.125 C 
BRANCH  32  33
ATOM     33  C           0     133.360 135.466 138.547  0.00  0.00     0.020 C 
BRANCH  33  34
ATOM     34  C           0     134.676 135.069 137.876  0.00  0.00     0.002 C 
BRANCH  34  35
ATOM     35  C           0     134.592 135.360 136.376  0.00  0.00     0.002 C 
BRANCH  35  36
ATOM     36  C           0     133.163 135.114 135.887  0.00  0.00     0.020 C 
BRANCH  36  37
ATOM     37  C           0     132.961 135.802 134.536  0.00  0.00     0.122 C 
BRANCH  37  38
ATOM     38  N           0     133.416 134.913 133.464  0.00  0.00    -0.361 N 
ATOM     39  C           0     134.567 135.176 132.814  0.00  0.00     0.221 C 
ATOM     40  O           0     135.226 136.147 133.116  0.00  0.00    -0.273 OA
ATOM     41  H           0     132.889 134.135 133.222  0.00  0.00     0.162 HD
BRANCH  39  42
ATOM     42  C           0     135.035 134.260 131.711  0.00  0.00     0.141 C 
BRANCH  42  43
ATOM     43  C           0     134.573 132.854 131.996  0.00  0.00    -0.049 A 
ATOM     44  C           0     134.991 132.213 133.149  0.00  0.00     0.008 A 
ATOM     45  C           0     134.569 130.927 133.420  0.00  0.00     0.016 A 
ATOM     46  C           0     133.725 130.270 132.521  0.00  0.00     0.015 A 
ATOM     47  C           0     133.312 130.922 131.356  0.00  0.00     0.016 A 
ATOM     48  C           0     133.738 132.208 131.102  0.00  0.00     0.008 A 
BRANCH  46  49
ATOM     49  C           0     133.274 128.891 132.799  0.00  0.00     0.192 C 
ATOM     50  O           0     134.052 128.077 133.255  0.00  0.00    -0.287 OA
BRANCH  49  51
ATOM     51  C           0     131.876 128.502 132.520  0.00  0.00     0.015 A 
ATOM     52  C           0     131.604 127.373 131.743  0.00  0.00     0.015 A 
ATOM     53  C           0     130.298 127.012 131.491  0.00  0.00     0.001 A 
ATOM     54  C           0     129.256 127.772 131.996  0.00  0.00     0.000 A 
ATOM     55  C           0     129.519 128.895 132.760  0.00  0.00     0.001 A 
ATOM     56  C           0     130.820 129.264 133.026  0.00  0.00     0.015 A 
ENDBRANCH  49  51
ENDBRANCH  46  49
ENDBRANCH  42  43
ENDBRANCH  39  42
ENDBRANCH  37  38
ENDBRANCH  36  37
ENDBRANCH  35  36
ENDBRANCH  34  35
ENDBRANCH  33  34
ENDBRANCH  32  33
ENDBRANCH   2  32
TORSDOF 16
ENDMDL
MODEL 8
REMARK VINA RESULT:      -8.3      4.001     13.219
REMARK  16 active torsions:
REMARK  status: ('A' for Active; 'I' for Inactive)
REMARK    1  A    between atoms: C_6  and  C_7 
REMARK    2  A    between atoms: C_7  and  O_8 
REMARK    3  A    between atoms: O_8  and  C_9 
REMARK       I    between atoms: C_9  and  N_10 
REMARK    4  A    between atoms: N_10  and  C_11 
REMARK    5  A    between atoms: C_11  and  C_12 
REMARK    6  A    between atoms: C_12  and  C_13 
REMARK    7  A    between atoms: C_13  and  C_14 
REMARK    8  A    between atoms: C_14  and  C_15 
REMARK    9  A    between atoms: C_15  and  C_16 
REMARK   10  A    between atoms: C_16  and  N_17 
REMARK       I    between atoms: N_17  and  C_18 
REMARK   11  A    between atoms: C_18  and  C_19 
REMARK   12  A    between atoms: C_19  and  C_20 
REMARK   13  A    between atoms: C_23  and  C_24 
REMARK   14  A    between atoms: C_24  and  C_25 
REMARK   15  A    between atoms: C_47  and  O_48 
REMARK   16  A    between atoms: C_47  and  O_49 
ROOT
ATOM      1  C           0     133.219 135.025 137.660  0.00  0.00     0.360 C 
ATOM      2  N           0     132.577 135.009 138.845  0.00  0.00    -0.337 N 
ATOM      3  O           0     134.433 135.014 137.627  0.00  0.00    -0.239 OA
ATOM      4  H           0     131.607 135.017 138.871  0.00  0.00     0.164 HD
ENDROOT
BRANCH   1   5
ATOM      5  O           0     132.515 135.050 136.513  0.00  0.00    -0.302 OA
BRANCH   5   6
ATOM      6  C           0     133.155 134.692 135.260  0.00  0.00     0.208 C 
BRANCH   6   7
ATOM      7  C           0     132.255 133.726 134.485  0.00  0.00     0.151 C 
ATOM      8  N           0     132.991 133.219 133.331  0.00  0.00    -0.218 N 
ATOM      9  C           0     133.269 134.093 132.295  0.00  0.00     0.672 C 
ATOM     10  H           0     133.278 132.293 133.291  0.00  0.00     0.178 HD
ATOM     11  N           0     134.310 133.948 131.524  0.00  0.00    -0.235 N 
ATOM     12  N           0     132.381 135.125 132.133  0.00  0.00    -0.183 N 
ATOM     13  H           0     134.920 133.208 131.669  0.00  0.00     0.174 HD
ATOM     14  H           0     134.472 134.577 130.804  0.00  0.00     0.174 HD
ATOM     15  C           0     131.115 135.309 132.845  0.00  0.00     0.217 C 
ATOM     16  C           0     132.516 136.308 131.264  0.00  0.00     0.150 C 
ATOM     17  C           0     130.983 134.453 134.094  0.00  0.00     0.180 C 
ATOM     18  C           0     131.042 136.811 133.166  0.00  0.00     0.209 C 
ATOM     19  N           0     129.974 134.922 131.998  0.00  0.00    -0.191 N 
ATOM     20  N           0     129.947 133.462 133.737  0.00  0.00    -0.216 N 
ATOM     21  C           0     129.260 133.951 132.654  0.00  0.00     0.670 C 
ATOM     22  H           0     129.781 132.618 134.187  0.00  0.00     0.178 HD
ATOM     23  N           0     128.076 133.543 132.292  0.00  0.00    -0.235 N 
ATOM     24  H           0     127.624 132.851 132.800  0.00  0.00     0.174 HD
ATOM     25  H           0     127.646 133.932 131.514  0.00  0.00     0.174 HD
ATOM     26  C           0     131.972 137.476 132.120  0.00  0.00     0.093 C 
ATOM     27  H           0     129.762 135.293 131.127  0.00  0.00     0.180 HD
BRANCH  18  28
ATOM     28  O           0     129.705 137.293 133.020  0.00  0.00    -0.362 OA
ATOM     29  H           0     129.558 137.932 133.730  0.00  0.00     0.213 HD
ENDBRANCH  18  28
BRANCH  18  30
ATOM     30  O           0     131.521 137.060 134.489  0.00  0.00    -0.362 OA
ATOM     31  H           0     130.780 137.428 134.990  0.00  0.00     0.213 HD
ENDBRANCH  18  30
ENDBRANCH   6   7
ENDBRANCH   5   6
ENDBRANCH   1   5
BRANCH   2  32
ATOM     32  C           0     133.344 134.980 140.093  0.00  0.00     0.125 C 
BRANCH  32  33
ATOM     33  C           0     133.110 133.645 140.803  0.00  0.00     0.020 C 
BRANCH  33  34
ATOM     34  C           0     134.406 133.192 141.478  0.00  0.00     0.002 C 
BRANCH  34  35
ATOM     35  C           0     134.132 132.878 142.950  0.00  0.00     0.002 C 
BRANCH  35  36
ATOM     36  C           0     134.469 134.101 143.805  0.00  0.00     0.020 C 
BRANCH  36  37
ATOM     37  C           0     135.877 134.590 143.462  0.00  0.00     0.122 C 
BRANCH  37  38
ATOM     38  N           0     136.834 134.040 144.425  0.00  0.00    -0.361 N 
ATOM     39  C           0     137.666 133.047 144.056  0.00  0.00     0.221 C 
ATOM     40  O           0     137.623 132.607 142.927  0.00  0.00    -0.273 OA
ATOM     41  H           0     136.869 134.391 145.329  0.00  0.00     0.162 HD
BRANCH  39  42
ATOM     42  C           0     138.651 132.481 145.047  0.00  0.00     0.141 C 
BRANCH  42  43
ATOM     43  C           0     137.955 131.476 145.930  0.00  0.00    -0.049 A 
ATOM     44  C           0     138.676 130.786 146.888  0.00  0.00     0.008 A 
ATOM     45  C           0     138.044 129.869 147.703  0.00  0.00     0.016 A 
ATOM     46  C           0     136.676 129.630 147.551  0.00  0.00     0.015 A 
ATOM     47  C           0     135.956 130.328 146.577  0.00  0.00     0.016 A 
ATOM     48  C           0     136.599 131.246 145.774  0.00  0.00     0.008 A 
BRANCH  46  49
ATOM     49  C           0     135.994 128.645 148.415  0.00  0.00     0.192 C 
ATOM     50  O           0     136.641 127.946 149.168  0.00  0.00    -0.287 OA
BRANCH  49  51
ATOM     51  C           0     134.524 128.509 148.360  0.00  0.00     0.015 A 
ATOM     52  C           0     133.721 129.183 149.283  0.00  0.00     0.015 A 
ATOM     53  C           0     132.350 129.055 149.223  0.00  0.00     0.001 A 
ATOM     54  C           0     131.767 128.252 148.258  0.00  0.00     0.000 A 
ATOM     55  C           0     132.557 127.576 147.344  0.00  0.00     0.001 A 
ATOM     56  C           0     133.929 127.699 147.389  0.00  0.00     0.015 A 
ENDBRANCH  49  51
ENDBRANCH  46  49
ENDBRANCH  42  43
ENDBRANCH  39  42
ENDBRANCH  37  38
ENDBRANCH  36  37
ENDBRANCH  35  36
ENDBRANCH  34  35
ENDBRANCH  33  34
ENDBRANCH  32  33
ENDBRANCH   2  32
TORSDOF 16
ENDMDL
MODEL 9
REMARK VINA RESULT:      -8.3      2.733      4.120
REMARK  16 active torsions:
REMARK  status: ('A' for Active; 'I' for Inactive)
REMARK    1  A    between atoms: C_6  and  C_7 
REMARK    2  A    between atoms: C_7  and  O_8 
REMARK    3  A    between atoms: O_8  and  C_9 
REMARK       I    between atoms: C_9  and  N_10 
REMARK    4  A    between atoms: N_10  and  C_11 
REMARK    5  A    between atoms: C_11  and  C_12 
REMARK    6  A    between atoms: C_12  and  C_13 
REMARK    7  A    between atoms: C_13  and  C_14 
REMARK    8  A    between atoms: C_14  and  C_15 
REMARK    9  A    between atoms: C_15  and  C_16 
REMARK   10  A    between atoms: C_16  and  N_17 
REMARK       I    between atoms: N_17  and  C_18 
REMARK   11  A    between atoms: C_18  and  C_19 
REMARK   12  A    between atoms: C_19  and  C_20 
REMARK   13  A    between atoms: C_23  and  C_24 
REMARK   14  A    between atoms: C_24  and  C_25 
REMARK   15  A    between atoms: C_47  and  O_48 
REMARK   16  A    between atoms: C_47  and  O_49 
ROOT
ATOM      1  C           0     134.887 132.355 142.058  0.00  0.00     0.360 C 
ATOM      2  N           0     134.286 133.362 141.393  0.00  0.00    -0.337 N 
ATOM      3  O           0     134.222 131.445 142.512  0.00  0.00    -0.239 OA
ATOM      4  H           0     134.816 134.088 141.030  0.00  0.00     0.164 HD
ENDROOT
BRANCH   1   5
ATOM      5  O           0     136.223 132.358 142.218  0.00  0.00    -0.302 OA
BRANCH   5   6
ATOM      6  C           0     136.806 131.896 143.466  0.00  0.00     0.208 C 
BRANCH   6   7
ATOM      7  C           0     137.052 133.093 144.388  0.00  0.00     0.151 C 
ATOM      8  N           0     138.413 133.014 144.911  0.00  0.00    -0.218 N 
ATOM      9  C           0     138.709 132.011 145.817  0.00  0.00     0.672 C 
ATOM     10  H           0     139.092 133.647 144.630  0.00  0.00     0.178 HD
ATOM     11  N           0     139.907 131.510 145.931  0.00  0.00    -0.235 N 
ATOM     12  N           0     137.661 131.575 146.585  0.00  0.00    -0.183 N 
ATOM     13  H           0     140.625 131.840 145.369  0.00  0.00     0.174 HD
ATOM     14  H           0     140.081 130.810 146.581  0.00  0.00     0.174 HD
ATOM     15  C           0     136.317 132.152 146.640  0.00  0.00     0.217 C 
ATOM     16  C           0     137.619 130.403 147.478  0.00  0.00     0.150 C 
ATOM     17  C           0     136.004 133.088 145.483  0.00  0.00     0.180 C 
ATOM     18  C           0     135.358 130.951 146.683  0.00  0.00     0.209 C 
ATOM     19  N           0     136.146 132.974 147.849  0.00  0.00    -0.191 N 
ATOM     20  N           0     135.952 134.424 146.113  0.00  0.00    -0.216 N 
ATOM     21  C           0     135.788 134.241 147.463  0.00  0.00     0.670 C 
ATOM     22  H           0     136.021 135.277 145.655  0.00  0.00     0.178 HD
ATOM     23  N           0     135.346 135.157 148.279  0.00  0.00    -0.235 N 
ATOM     24  H           0     135.110 136.035 147.940  0.00  0.00     0.174 HD
ATOM     25  H           0     135.254 134.961 149.224  0.00  0.00     0.174 HD
ATOM     26  C           0     136.220 129.788 147.237  0.00  0.00     0.093 C 
ATOM     27  H           0     136.263 132.670 148.763  0.00  0.00     0.180 HD
BRANCH  18  28
ATOM     28  O           0     134.259 131.216 147.557  0.00  0.00    -0.362 OA
ATOM     29  H           0     133.759 131.944 147.164  0.00  0.00     0.213 HD
ENDBRANCH  18  28
BRANCH  18  30
ATOM     30  O           0     134.889 130.641 145.370  0.00  0.00    -0.362 OA
ATOM     31  H           0     134.654 129.703 145.370  0.00  0.00     0.213 HD
ENDBRANCH  18  30
ENDBRANCH   6   7
ENDBRANCH   5   6
ENDBRANCH   1   5
BRANCH   2  32
ATOM     32  C           0     132.831 133.357 141.218  0.00  0.00     0.125 C 
BRANCH  32  33
ATOM     33  C           0     132.485 133.900 139.830  0.00  0.00     0.020 C 
BRANCH  33  34
ATOM     34  C           0     133.316 135.154 139.550  0.00  0.00     0.002 C 
BRANCH  34  35
ATOM     35  C           0     133.722 135.179 138.075  0.00  0.00     0.002 C 
BRANCH  35  36
ATOM     36  C           0     132.553 134.692 137.216  0.00  0.00     0.020 C 
BRANCH  36  37
ATOM     37  C           0     132.481 135.523 135.934  0.00  0.00     0.122 C 
BRANCH  37  38
ATOM     38  N           0     133.630 135.206 135.082  0.00  0.00    -0.361 N 
ATOM     39  C           0     133.436 134.685 133.855  0.00  0.00     0.221 C 
ATOM     40  O           0     132.311 134.477 133.455  0.00  0.00    -0.273 OA
ATOM     41  H           0     134.531 135.372 135.401  0.00  0.00     0.162 HD
BRANCH  39  42
ATOM     42  C           0     134.619 134.360 132.979  0.00  0.00     0.141 C 
BRANCH  42  43
ATOM     43  C           0     134.660 132.875 132.719  0.00  0.00    -0.049 A 
ATOM     44  C           0     134.827 131.997 133.775  0.00  0.00     0.008 A 
ATOM     45  C           0     134.860 130.637 133.546  0.00  0.00     0.016 A 
ATOM     46  C           0     134.733 130.148 132.244  0.00  0.00     0.015 A 
ATOM     47  C           0     134.570 131.042 131.182  0.00  0.00     0.016 A 
ATOM     48  C           0     134.533 132.398 131.426  0.00  0.00     0.008 A 
BRANCH  46  49
ATOM     49  C           0     134.774 128.693 131.989  0.00  0.00     0.192 C 
ATOM     50  O           0     135.755 128.194 131.474  0.00  0.00    -0.287 OA
BRANCH  49  51
ATOM     51  C           0     133.620 127.847 132.357  0.00  0.00     0.015 A 
ATOM     52  C           0     132.364 128.423 132.561  0.00  0.00     0.015 A 
ATOM     53  C           0     131.291 127.626 132.899  0.00  0.00     0.001 A 
ATOM     54  C           0     131.458 126.260 133.048  0.00  0.00     0.000 A 
ATOM     55  C           0     132.701 125.684 132.854  0.00  0.00     0.001 A 
ATOM     56  C           0     133.782 126.467 132.510  0.00  0.00     0.015 A 
ENDBRANCH  49  51
ENDBRANCH  46  49
ENDBRANCH  42  43
ENDBRANCH  39  42
ENDBRANCH  37  38
ENDBRANCH  36  37
ENDBRANCH  35  36
ENDBRANCH  34  35
ENDBRANCH  33  34
ENDBRANCH  32  33
ENDBRANCH   2  32
TORSDOF 16
ENDMDL
