# created with PyMOL 2.3.4
@<TRIPOS>MOLECULE
ligand_out_0001
28 30 1                 
SMALL
USER_CHARGES
@<TRIPOS>ATOM
1	   N	135.475	132.583	147.064	N.3	1	UNK0	-0.235	
2	   N	136.894	134.169	146.060	N.3	1	UNK0	-0.218	
3	   N	136.370	135.980	143.625	N.3	1	UNK0	-0.216	
4	   N	134.445	136.970	142.670	N.3	1	UNK0	-0.235	
5	   N	134.556	134.673	143.223	N.3	1	UNK0	-0.191	
6	   N	135.359	132.989	144.762	N.3	1	UNK0	-0.183	
7	   C	135.888	133.220	146.005	C.3	1	UNK0	0.672	
8	   C	137.719	134.375	144.873	C.3	1	UNK0	0.150	
9	   C	136.894	134.599	143.621	C.3	1	UNK0	0.180	
10	   C	135.085	135.937	143.143	C.3	1	UNK0	0.670	
11	   C	135.646	133.734	143.535	C.3	1	UNK0	0.217	
12	   C	134.434	131.914	144.357	C.3	1	UNK0	0.150	
13	   C	134.954	131.462	142.972	C.3	1	UNK0	0.093	
14	   C	135.756	132.673	142.428	C.3	1	UNK0	0.209	
15	   C	138.603	133.143	144.667	C.2	1	UNK0	0.192	
16	   O	135.174	133.151	141.214	O.2	1	UNK0	-0.362	
17	   O	137.122	132.312	142.220	O.2	1	UNK0	-0.362	
18	   O	139.325	133.274	143.441	O.2	1	UNK0	-0.399	
19	   H	135.876	132.768	147.928	 H	1	UNK0	0.174	
20	   H	134.765	131.927	146.989	 H	1	UNK0	0.174	
21	   H	134.878	137.838	142.641	 H	1	UNK0	0.174	
22	   H	133.537	136.870	142.344	 H	1	UNK0	0.174	
23	   H	137.047	134.684	146.868	 H	1	UNK0	0.178	
24	   H	136.847	136.774	143.914	 H	1	UNK0	0.178	
25	   H	133.625	134.439	143.092	 H	1	UNK0	0.180	
26	   H	135.325	134.106	141.188	 H	1	UNK0	0.213	
27	   H	137.157	131.345	142.203	 H	1	UNK0	0.213	
28	   H	139.687	134.169	143.424	 H	1	UNK0	0.209	
@<TRIPOS>BOND
1 1 7 1
2 1 19 1
3 1 20 1
4 2 8 1
5 2 23 1
6 3 10 1
7 3 24 1
8 4 21 1
9 4 22 1
10 5 25 1
11 6 12 1
12 2 7 1
13 6 7 1
14 8 9 1
15 8 15 1
16 3 9 1
17 9 11 1
18 4 10 1
19 5 10 1
20 5 11 1
21 6 11 1
22 11 14 1
23 12 13 1
24 13 14 1
25 14 16 2
26 14 17 2
27 15 18 2
28 16 26 1
29 17 27 1
30 18 28 1
@<TRIPOS>SUBSTRUCTURE
1	UNK0	1	GROUP	1 ****	UNK
