MODEL 1
REMARK VINA RESULT:      -7.5      0.000      0.000
REMARK  4 active torsions:
REMARK  status: ('A' for Active; 'I' for Inactive)
REMARK    1  A    between atoms: C_6  and  C_7 
REMARK    2  A    between atoms: C_7  and  O_8 
REMARK    3  A    between atoms: C_20  and  O_21 
REMARK    4  A    between atoms: C_20  and  O_22 
ROOT
ATOM      1  N           0     135.475 132.583 147.064  0.00  0.00    -0.235 N 
ATOM      2  H           0     135.876 132.768 147.928  0.00  0.00     0.174 HD
ATOM      3  H           0     134.765 131.927 146.989  0.00  0.00     0.174 HD
ATOM      4  C           0     135.888 133.220 146.005  0.00  0.00     0.672 C 
ATOM      5  N           0     136.894 134.169 146.060  0.00  0.00    -0.218 N 
ATOM      6  C           0     137.719 134.375 144.873  0.00  0.00     0.150 C 
ATOM      7  C           0     136.894 134.599 143.621  0.00  0.00     0.180 C 
ATOM      8  N           0     136.370 135.980 143.625  0.00  0.00    -0.216 N 
ATOM      9  C           0     135.085 135.937 143.143  0.00  0.00     0.670 C 
ATOM     10  N           0     134.445 136.970 142.670  0.00  0.00    -0.235 N 
ATOM     11  H           0     134.878 137.838 142.641  0.00  0.00     0.174 HD
ATOM     12  H           0     133.537 136.870 142.344  0.00  0.00     0.174 HD
ATOM     13  C           0     135.646 133.734 143.535  0.00  0.00     0.217 C 
ATOM     14  N           0     134.556 134.673 143.223  0.00  0.00    -0.191 N 
ATOM     15  N           0     135.359 132.989 144.762  0.00  0.00    -0.183 N 
ATOM     16  C           0     134.434 131.914 144.357  0.00  0.00     0.150 C 
ATOM     17  C           0     134.954 131.462 142.972  0.00  0.00     0.093 C 
ATOM     18  C           0     135.756 132.673 142.428  0.00  0.00     0.209 C 
ATOM     19  H           0     137.047 134.684 146.868  0.00  0.00     0.178 HD
ATOM     20  H           0     136.847 136.774 143.914  0.00  0.00     0.178 HD
ATOM     21  H           0     133.625 134.439 143.092  0.00  0.00     0.180 HD
ENDROOT
BRANCH  18  22
ATOM     22  O           0     135.174 133.151 141.214  0.00  0.00    -0.362 OA
ATOM     23  H           0     135.325 134.106 141.188  0.00  0.00     0.213 HD
ENDBRANCH  18  22
BRANCH  18  24
ATOM     24  O           0     137.122 132.312 142.220  0.00  0.00    -0.362 OA
ATOM     25  H           0     137.157 131.345 142.203  0.00  0.00     0.213 HD
ENDBRANCH  18  24
BRANCH   6  26
ATOM     26  C           0     138.603 133.143 144.667  0.00  0.00     0.192 C 
BRANCH  26  27
ATOM     27  O           0     139.325 133.274 143.441  0.00  0.00    -0.399 OA
ATOM     28  H           0     139.687 134.169 143.424  0.00  0.00     0.209 HD
ENDBRANCH  26  27
ENDBRANCH   6  26
TORSDOF 4
ENDMDL
MODEL 2
REMARK VINA RESULT:      -7.2      1.693      2.317
REMARK  4 active torsions:
REMARK  status: ('A' for Active; 'I' for Inactive)
REMARK    1  A    between atoms: C_6  and  C_7 
REMARK    2  A    between atoms: C_7  and  O_8 
REMARK    3  A    between atoms: C_20  and  O_21 
REMARK    4  A    between atoms: C_20  and  O_22 
ROOT
ATOM      1  N           0     135.932 134.703 146.907  0.00  0.00    -0.235 N 
ATOM      2  H           0     136.251 135.598 147.100  0.00  0.00     0.174 HD
ATOM      3  H           0     135.618 134.133 147.626  0.00  0.00     0.174 HD
ATOM      4  C           0     135.922 134.266 145.679  0.00  0.00     0.672 C 
ATOM      5  N           0     136.354 135.042 144.617  0.00  0.00    -0.218 N 
ATOM      6  C           0     136.903 134.367 143.444  0.00  0.00     0.150 C 
ATOM      7  C           0     135.993 133.273 142.922  0.00  0.00     0.180 C 
ATOM      8  N           0     134.874 133.887 142.175  0.00  0.00    -0.216 N 
ATOM      9  C           0     133.737 133.178 142.476  0.00  0.00     0.670 C 
ATOM     10  N           0     132.654 133.191 141.751  0.00  0.00    -0.235 N 
ATOM     11  H           0     132.617 133.724 140.942  0.00  0.00     0.174 HD
ATOM     12  H           0     131.884 132.665 142.021  0.00  0.00     0.174 HD
ATOM     13  C           0     135.306 132.463 144.009  0.00  0.00     0.217 C 
ATOM     14  N           0     133.882 132.455 143.634  0.00  0.00    -0.191 N 
ATOM     15  N           0     135.488 133.007 145.356  0.00  0.00    -0.183 N 
ATOM     16  C           0     135.164 131.898 146.272  0.00  0.00     0.150 C 
ATOM     17  C           0     135.747 130.644 145.577  0.00  0.00     0.093 C 
ATOM     18  C           0     135.837 131.022 144.075  0.00  0.00     0.209 C 
ATOM     19  H           0     136.295 136.010 144.652  0.00  0.00     0.178 HD
ATOM     20  H           0     134.932 134.651 141.581  0.00  0.00     0.178 HD
ATOM     21  H           0     133.169 132.012 144.119  0.00  0.00     0.180 HD
ENDROOT
BRANCH  18  22
ATOM     22  O           0     135.021 130.148 143.293  0.00  0.00    -0.362 OA
ATOM     23  H           0     135.483 130.010 142.454  0.00  0.00     0.213 HD
ENDBRANCH  18  22
BRANCH  18  24
ATOM     24  O           0     137.193 130.971 143.630  0.00  0.00    -0.362 OA
ATOM     25  H           0     137.168 130.841 142.671  0.00  0.00     0.213 HD
ENDBRANCH  18  24
BRANCH   6  26
ATOM     26  C           0     138.252 133.749 143.817  0.00  0.00     0.192 C 
BRANCH  26  27
ATOM     27  O           0     138.757 133.001 142.708  0.00  0.00    -0.399 OA
ATOM     28  H           0     138.270 133.295 141.927  0.00  0.00     0.209 HD
ENDBRANCH  26  27
ENDBRANCH   6  26
TORSDOF 4
ENDMDL
MODEL 3
REMARK VINA RESULT:      -7.2      1.280      4.245
REMARK  4 active torsions:
REMARK  status: ('A' for Active; 'I' for Inactive)
REMARK    1  A    between atoms: C_6  and  C_7 
REMARK    2  A    between atoms: C_7  and  O_8 
REMARK    3  A    between atoms: C_20  and  O_21 
REMARK    4  A    between atoms: C_20  and  O_22 
ROOT
ATOM      1  N           0     135.027 136.696 143.168  0.00  0.00    -0.235 N 
ATOM      2  H           0     134.238 137.137 142.816  0.00  0.00     0.174 HD
ATOM      3  H           0     135.802 137.220 143.425  0.00  0.00     0.174 HD
ATOM      4  C           0     135.044 135.399 143.300  0.00  0.00     0.672 C 
ATOM      5  N           0     133.962 134.609 142.953  0.00  0.00    -0.218 N 
ATOM      6  C           0     134.217 133.235 142.528  0.00  0.00     0.150 C 
ATOM      7  C           0     135.094 132.475 143.504  0.00  0.00     0.180 C 
ATOM      8  N           0     134.285 132.075 144.674  0.00  0.00    -0.216 N 
ATOM      9  C           0     135.066 132.236 145.792  0.00  0.00     0.670 C 
ATOM     10  N           0     134.833 131.659 146.938  0.00  0.00    -0.235 N 
ATOM     11  H           0     134.068 131.072 147.039  0.00  0.00     0.174 HD
ATOM     12  H           0     135.426 131.816 147.689  0.00  0.00     0.174 HD
ATOM     13  C           0     136.220 133.303 144.103  0.00  0.00     0.217 C 
ATOM     14  N           0     136.122 133.081 145.555  0.00  0.00    -0.191 N 
ATOM     15  N           0     136.137 134.730 143.786  0.00  0.00    -0.183 N 
ATOM     16  C           0     137.486 135.266 144.045  0.00  0.00     0.150 C 
ATOM     17  C           0     138.441 134.153 143.554  0.00  0.00     0.093 C 
ATOM     18  C           0     137.599 132.852 143.596  0.00  0.00     0.209 C 
ATOM     19  H           0     133.059 134.959 142.990  0.00  0.00     0.178 HD
ATOM     20  H           0     133.370 131.756 144.657  0.00  0.00     0.178 HD
ATOM     21  H           0     136.706 133.462 146.229  0.00  0.00     0.180 HD
ENDROOT
BRANCH  18  22
ATOM     22  O           0     138.183 131.909 144.497  0.00  0.00    -0.362 OA
ATOM     23  H           0     139.120 131.845 144.266  0.00  0.00     0.213 HD
ENDBRANCH  18  22
BRANCH  18  24
ATOM     24  O           0     137.488 132.288 142.288  0.00  0.00    -0.362 OA
ATOM     25  H           0     137.641 133.008 141.659  0.00  0.00     0.213 HD
ENDBRANCH  18  24
BRANCH   6  26
ATOM     26  C           0     134.907 133.260 141.163  0.00  0.00     0.192 C 
BRANCH  26  27
ATOM     27  O           0     134.156 134.079 140.264  0.00  0.00    -0.399 OA
ATOM     28  H           0     133.838 133.501 139.558  0.00  0.00     0.209 HD
ENDBRANCH  26  27
ENDBRANCH   6  26
TORSDOF 4
ENDMDL
MODEL 4
REMARK VINA RESULT:      -6.5      2.908      4.236
REMARK  4 active torsions:
REMARK  status: ('A' for Active; 'I' for Inactive)
REMARK    1  A    between atoms: C_6  and  C_7 
REMARK    2  A    between atoms: C_7  and  O_8 
REMARK    3  A    between atoms: C_20  and  O_21 
REMARK    4  A    between atoms: C_20  and  O_22 
ROOT
ATOM      1  N           0     139.062 130.478 145.937  0.00  0.00    -0.235 N 
ATOM      2  H           0     139.232 129.639 146.394  0.00  0.00     0.174 HD
ATOM      3  H           0     139.796 130.974 145.544  0.00  0.00     0.174 HD
ATOM      4  C           0     137.845 130.936 145.849  0.00  0.00     0.672 C 
ATOM      5  N           0     136.762 130.263 146.390  0.00  0.00    -0.218 N 
ATOM      6  C           0     135.604 131.044 146.815  0.00  0.00     0.150 C 
ATOM      7  C           0     135.113 131.993 145.741  0.00  0.00     0.180 C 
ATOM      8  N           0     134.356 131.228 144.727  0.00  0.00    -0.216 N 
ATOM      9  C           0     134.679 131.742 143.495  0.00  0.00     0.670 C 
ATOM     10  N           0     133.959 131.576 142.421  0.00  0.00    -0.235 N 
ATOM     11  H           0     133.137 131.063 142.462  0.00  0.00     0.174 HD
ATOM     12  H           0     134.244 131.967 141.580  0.00  0.00     0.174 HD
ATOM     13  C           0     136.223 132.659 144.943  0.00  0.00     0.217 C 
ATOM     14  N           0     135.854 132.451 143.533  0.00  0.00    -0.191 N 
ATOM     15  N           0     137.554 132.119 145.220  0.00  0.00    -0.183 N 
ATOM     16  C           0     138.499 133.141 144.733  0.00  0.00     0.150 C 
ATOM     17  C           0     137.833 134.487 145.105  0.00  0.00     0.093 C 
ATOM     18  C           0     136.322 134.164 145.242  0.00  0.00     0.209 C 
ATOM     19  H           0     136.774 129.298 146.483  0.00  0.00     0.178 HD
ATOM     20  H           0     133.743 130.497 144.899  0.00  0.00     0.178 HD
ATOM     21  H           0     136.352 132.765 142.763  0.00  0.00     0.180 HD
ENDROOT
BRANCH  18  22
ATOM     22  O           0     135.565 134.917 144.292  0.00  0.00    -0.362 OA
ATOM     23  H           0     136.168 135.566 143.905  0.00  0.00     0.213 HD
ENDBRANCH  18  22
BRANCH  18  24
ATOM     24  O           0     135.872 134.438 146.569  0.00  0.00    -0.362 OA
ATOM     25  H           0     135.507 133.612 146.917  0.00  0.00     0.213 HD
ENDBRANCH  18  24
BRANCH   6  26
ATOM     26  C           0     135.986 131.858 148.053  0.00  0.00     0.192 C 
BRANCH  26  27
ATOM     27  O           0     134.835 132.548 148.544  0.00  0.00    -0.399 OA
ATOM     28  H           0     134.086 131.944 148.453  0.00  0.00     0.209 HD
ENDBRANCH  26  27
ENDBRANCH   6  26
TORSDOF 4
ENDMDL
MODEL 5
REMARK VINA RESULT:      -6.4      1.671      4.222
REMARK  4 active torsions:
REMARK  status: ('A' for Active; 'I' for Inactive)
REMARK    1  A    between atoms: C_6  and  C_7 
REMARK    2  A    between atoms: C_7  and  O_8 
REMARK    3  A    between atoms: C_20  and  O_21 
REMARK    4  A    between atoms: C_20  and  O_22 
ROOT
ATOM      1  N           0     134.978 134.596 142.171  0.00  0.00    -0.235 N 
ATOM      2  H           0     134.072 134.597 141.824  0.00  0.00     0.174 HD
ATOM      3  H           0     135.681 135.064 141.693  0.00  0.00     0.174 HD
ATOM      4  C           0     135.249 133.970 143.281  0.00  0.00     0.672 C 
ATOM      5  N           0     134.280 133.293 144.001  0.00  0.00    -0.218 N 
ATOM      6  C           0     134.692 132.152 144.815  0.00  0.00     0.150 C 
ATOM      7  C           0     135.854 132.479 145.731  0.00  0.00     0.180 C 
ATOM      8  N           0     135.359 133.257 146.886  0.00  0.00    -0.216 N 
ATOM      9  C           0     136.291 134.227 147.162  0.00  0.00     0.670 C 
ATOM     10  N           0     136.378 134.855 148.301  0.00  0.00    -0.235 N 
ATOM     11  H           0     135.761 134.646 149.020  0.00  0.00     0.174 HD
ATOM     12  H           0     137.062 135.531 148.431  0.00  0.00     0.174 HD
ATOM     13  C           0     136.906 133.382 145.106  0.00  0.00     0.217 C 
ATOM     14  N           0     137.117 134.455 146.091  0.00  0.00    -0.191 N 
ATOM     15  N           0     136.513 133.933 143.808  0.00  0.00    -0.183 N 
ATOM     16  C           0     137.770 134.379 143.178  0.00  0.00     0.150 C 
ATOM     17  C           0     138.801 133.295 143.570  0.00  0.00     0.093 C 
ATOM     18  C           0     138.226 132.636 144.851  0.00  0.00     0.209 C 
ATOM     19  H           0     133.351 133.569 143.965  0.00  0.00     0.178 HD
ATOM     20  H           0     134.527 133.110 147.362  0.00  0.00     0.178 HD
ATOM     21  H           0     137.738 135.194 146.000  0.00  0.00     0.180 HD
ENDROOT
BRANCH  18  22
ATOM     22  O           0     139.124 132.814 145.949  0.00  0.00    -0.362 OA
ATOM     23  H           0     138.665 132.498 146.739  0.00  0.00     0.213 HD
ENDBRANCH  18  22
BRANCH  18  24
ATOM     24  O           0     137.978 131.247 144.629  0.00  0.00    -0.362 OA
ATOM     25  H           0     137.515 130.917 145.412  0.00  0.00     0.213 HD
ENDBRANCH  18  24
BRANCH   6  26
ATOM     26  C           0     135.103 131.007 143.887  0.00  0.00     0.192 C 
BRANCH  26  27
ATOM     27  O           0     134.065 130.769 142.934  0.00  0.00    -0.399 OA
ATOM     28  H           0     134.462 130.271 142.207  0.00  0.00     0.209 HD
ENDBRANCH  26  27
ENDBRANCH   6  26
TORSDOF 4
ENDMDL
MODEL 6
REMARK VINA RESULT:      -6.2      8.499     10.665
REMARK  4 active torsions:
REMARK  status: ('A' for Active; 'I' for Inactive)
REMARK    1  A    between atoms: C_6  and  C_7 
REMARK    2  A    between atoms: C_7  and  O_8 
REMARK    3  A    between atoms: C_20  and  O_21 
REMARK    4  A    between atoms: C_20  and  O_22 
ROOT
ATOM      1  N           0     132.286 137.391 132.476  0.00  0.00    -0.235 N 
ATOM      2  H           0     131.532 137.992 132.370  0.00  0.00     0.174 HD
ATOM      3  H           0     133.045 137.454 131.875  0.00  0.00     0.174 HD
ATOM      4  C           0     132.281 136.502 133.428  0.00  0.00     0.672 C 
ATOM      5  N           0     131.225 136.376 134.314  0.00  0.00    -0.218 N 
ATOM      6  C           0     130.970 135.065 134.905  0.00  0.00     0.150 C 
ATOM      7  C           0     132.211 134.450 135.521  0.00  0.00     0.180 C 
ATOM      8  N           0     132.481 135.099 136.821  0.00  0.00    -0.216 N 
ATOM      9  C           0     133.840 135.262 136.928  0.00  0.00     0.670 C 
ATOM     10  N           0     134.467 135.459 138.054  0.00  0.00    -0.235 N 
ATOM     11  H           0     133.971 135.496 138.886  0.00  0.00     0.174 HD
ATOM     12  H           0     135.432 135.565 138.060  0.00  0.00     0.174 HD
ATOM     13  C           0     133.484 134.685 134.723  0.00  0.00     0.217 C 
ATOM     14  N           0     134.457 135.193 135.704  0.00  0.00    -0.191 N 
ATOM     15  N           0     133.320 135.627 133.614  0.00  0.00    -0.183 N 
ATOM     16  C           0     134.471 135.385 132.725  0.00  0.00     0.150 C 
ATOM     17  C           0     134.665 133.851 132.757  0.00  0.00     0.093 C 
ATOM     18  C           0     134.011 133.390 134.085  0.00  0.00     0.209 C 
ATOM     19  H           0     130.670 137.139 134.536  0.00  0.00     0.178 HD
ATOM     20  H           0     131.819 135.363 137.479  0.00  0.00     0.178 HD
ATOM     21  H           0     135.377 135.434 135.519  0.00  0.00     0.180 HD
ENDROOT
BRANCH  18  22
ATOM     22  O           0     134.983 132.772 134.931  0.00  0.00    -0.362 OA
ATOM     23  H           0     135.424 132.094 134.401  0.00  0.00     0.213 HD
ENDBRANCH  18  22
BRANCH  18  24
ATOM     24  O           0     132.933 132.490 133.824  0.00  0.00    -0.362 OA
ATOM     25  H           0     133.136 131.667 134.290  0.00  0.00     0.213 HD
ENDBRANCH  18  24
BRANCH   6  26
ATOM     26  C           0     130.445 134.127 133.816  0.00  0.00     0.192 C 
BRANCH  26  27
ATOM     27  O           0     130.168 132.844 134.383  0.00  0.00    -0.399 OA
ATOM     28  H           0     130.428 132.888 135.312  0.00  0.00     0.209 HD
ENDBRANCH  26  27
ENDBRANCH   6  26
TORSDOF 4
ENDMDL
MODEL 7
REMARK VINA RESULT:      -6.1      9.424     11.061
REMARK  4 active torsions:
REMARK  status: ('A' for Active; 'I' for Inactive)
REMARK    1  A    between atoms: C_6  and  C_7 
REMARK    2  A    between atoms: C_7  and  O_8 
REMARK    3  A    between atoms: C_20  and  O_21 
REMARK    4  A    between atoms: C_20  and  O_22 
ROOT
ATOM      1  N           0     134.500 132.869 132.648  0.00  0.00    -0.235 N 
ATOM      2  H           0     134.543 132.118 132.036  0.00  0.00     0.174 HD
ATOM      3  H           0     135.311 133.341 132.895  0.00  0.00     0.174 HD
ATOM      4  C           0     133.353 133.245 133.137  0.00  0.00     0.672 C 
ATOM      5  N           0     132.168 132.608 132.812  0.00  0.00    -0.218 N 
ATOM      6  C           0     131.082 132.624 133.788  0.00  0.00     0.150 C 
ATOM      7  C           0     130.772 134.019 134.294  0.00  0.00     0.180 C 
ATOM      8  N           0     130.000 134.748 133.267  0.00  0.00    -0.216 N 
ATOM      9  C           0     130.458 136.043 133.246  0.00  0.00     0.670 C 
ATOM     10  N           0     129.794 137.046 132.744  0.00  0.00    -0.235 N 
ATOM     11  H           0     128.918 136.902 132.355  0.00  0.00     0.174 HD
ATOM     12  H           0     130.176 137.938 132.762  0.00  0.00     0.174 HD
ATOM     13  C           0     132.001 134.888 134.514  0.00  0.00     0.217 C 
ATOM     14  N           0     131.701 136.150 133.817  0.00  0.00    -0.191 N 
ATOM     15  N           0     133.241 134.295 134.012  0.00  0.00    -0.183 N 
ATOM     16  C           0     134.326 135.026 134.691  0.00  0.00     0.150 C 
ATOM     17  C           0     133.797 135.251 136.127  0.00  0.00     0.093 C 
ATOM     18  C           0     132.253 135.161 136.006  0.00  0.00     0.209 C 
ATOM     19  H           0     132.062 132.162 131.957  0.00  0.00     0.178 HD
ATOM     20  H           0     129.297 134.381 132.709  0.00  0.00     0.178 HD
ATOM     21  H           0     132.281 136.925 133.773  0.00  0.00     0.180 HD
ENDROOT
BRANCH  18  22
ATOM     22  O           0     131.650 136.394 136.401  0.00  0.00    -0.362 OA
ATOM     23  H           0     132.227 136.786 137.071  0.00  0.00     0.213 HD
ENDBRANCH  18  22
BRANCH  18  24
ATOM     24  O           0     131.753 134.083 136.800  0.00  0.00    -0.362 OA
ATOM     25  H           0     131.376 134.477 137.599  0.00  0.00     0.213 HD
ENDBRANCH  18  24
BRANCH   6  26
ATOM     26  C           0     131.475 131.745 134.977  0.00  0.00     0.192 C 
BRANCH  26  27
ATOM     27  O           0     130.347 131.578 135.840  0.00  0.00    -0.399 OA
ATOM     28  H           0     130.651 131.065 136.600  0.00  0.00     0.209 HD
ENDBRANCH  26  27
ENDBRANCH   6  26
TORSDOF 4
ENDMDL
MODEL 8
REMARK VINA RESULT:      -6.0      2.542      4.466
REMARK  4 active torsions:
REMARK  status: ('A' for Active; 'I' for Inactive)
REMARK    1  A    between atoms: C_6  and  C_7 
REMARK    2  A    between atoms: C_7  and  O_8 
REMARK    3  A    between atoms: C_20  and  O_21 
REMARK    4  A    between atoms: C_20  and  O_22 
ROOT
ATOM      1  N           0     136.276 135.168 148.128  0.00  0.00    -0.235 N 
ATOM      2  H           0     135.744 135.970 148.014  0.00  0.00     0.174 HD
ATOM      3  H           0     136.714 134.992 148.976  0.00  0.00     0.174 HD
ATOM      4  C           0     136.400 134.323 147.144  0.00  0.00     0.672 C 
ATOM      5  N           0     135.791 134.525 145.917  0.00  0.00    -0.218 N 
ATOM      6  C           0     136.420 133.954 144.729  0.00  0.00     0.150 C 
ATOM      7  C           0     136.738 132.481 144.888  0.00  0.00     0.180 C 
ATOM      8  N           0     135.496 131.696 144.736  0.00  0.00    -0.216 N 
ATOM      9  C           0     135.531 130.681 145.661  0.00  0.00     0.670 C 
ATOM     10  N           0     134.806 129.599 145.589  0.00  0.00    -0.235 N 
ATOM     11  H           0     134.195 129.473 144.847  0.00  0.00     0.174 HD
ATOM     12  H           0     134.880 128.919 146.278  0.00  0.00     0.174 HD
ATOM     13  C           0     137.245 132.099 146.270  0.00  0.00     0.217 C 
ATOM     14  N           0     136.422 130.946 146.671  0.00  0.00    -0.191 N 
ATOM     15  N           0     137.147 133.179 147.254  0.00  0.00    -0.183 N 
ATOM     16  C           0     138.061 132.796 148.345  0.00  0.00     0.150 C 
ATOM     17  C           0     139.275 132.164 147.624  0.00  0.00     0.093 C 
ATOM     18  C           0     138.730 131.700 146.248  0.00  0.00     0.209 C 
ATOM     19  H           0     134.967 135.033 145.850  0.00  0.00     0.178 HD
ATOM     20  H           0     134.784 131.865 144.100  0.00  0.00     0.178 HD
ATOM     21  H           0     136.499 130.455 147.503  0.00  0.00     0.180 HD
ENDROOT
BRANCH  18  22
ATOM     22  O           0     138.868 130.285 146.109  0.00  0.00    -0.362 OA
ATOM     23  H           0     139.045 129.933 146.993  0.00  0.00     0.213 HD
ENDBRANCH  18  22
BRANCH  18  24
ATOM     24  O           0     139.410 132.375 145.190  0.00  0.00    -0.362 OA
ATOM     25  H           0     140.108 131.780 144.880  0.00  0.00     0.213 HD
ENDBRANCH  18  24
BRANCH   6  26
ATOM     26  C           0     137.719 134.711 144.447  0.00  0.00     0.192 C 
BRANCH  26  27
ATOM     27  O           0     137.413 135.990 143.887  0.00  0.00    -0.399 OA
ATOM     28  H           0     137.795 136.005 142.999  0.00  0.00     0.209 HD
ENDBRANCH  26  27
ENDBRANCH   6  26
TORSDOF 4
ENDMDL
MODEL 9
REMARK VINA RESULT:      -5.9      3.151      4.552
REMARK  4 active torsions:
REMARK  status: ('A' for Active; 'I' for Inactive)
REMARK    1  A    between atoms: C_6  and  C_7 
REMARK    2  A    between atoms: C_7  and  O_8 
REMARK    3  A    between atoms: C_20  and  O_21 
REMARK    4  A    between atoms: C_20  and  O_22 
ROOT
ATOM      1  N           0     139.397 130.549 146.252  0.00  0.00    -0.235 N 
ATOM      2  H           0     139.567 129.735 145.753  0.00  0.00     0.174 HD
ATOM      3  H           0     140.026 130.843 146.929  0.00  0.00     0.174 HD
ATOM      4  C           0     138.325 131.249 146.010  0.00  0.00     0.672 C 
ATOM      5  N           0     137.400 130.874 145.051  0.00  0.00    -0.218 N 
ATOM      6  C           0     136.009 131.278 145.236  0.00  0.00     0.150 C 
ATOM      7  C           0     135.863 132.761 145.513  0.00  0.00     0.180 C 
ATOM      8  N           0     136.022 133.510 144.249  0.00  0.00    -0.216 N 
ATOM      9  C           0     136.745 134.644 144.527  0.00  0.00     0.670 C 
ATOM     10  N           0     136.773 135.700 143.764  0.00  0.00    -0.235 N 
ATOM     11  H           0     136.260 135.718 142.941  0.00  0.00     0.174 HD
ATOM     12  H           0     137.305 136.470 144.020  0.00  0.00     0.174 HD
ATOM     13  C           0     136.943 133.334 146.416  0.00  0.00     0.217 C 
ATOM     14  N           0     137.436 134.527 145.707  0.00  0.00    -0.191 N 
ATOM     15  N           0     138.037 132.402 146.694  0.00  0.00    -0.183 N 
ATOM     16  C           0     138.712 132.938 147.890  0.00  0.00     0.150 C 
ATOM     17  C           0     137.561 133.472 148.774  0.00  0.00     0.093 C 
ATOM     18  C           0     136.389 133.735 147.793  0.00  0.00     0.209 C 
ATOM     19  H           0     137.670 130.357 144.276  0.00  0.00     0.178 HD
ATOM     20  H           0     135.679 133.249 143.381  0.00  0.00     0.178 HD
ATOM     21  H           0     138.127 135.129 146.022  0.00  0.00     0.180 HD
ENDROOT
BRANCH  18  22
ATOM     22  O           0     136.029 135.118 147.807  0.00  0.00    -0.362 OA
ATOM     23  H           0     135.761 135.328 148.713  0.00  0.00     0.213 HD
ENDBRANCH  18  22
BRANCH  18  24
ATOM     24  O           0     135.264 132.923 148.132  0.00  0.00    -0.362 OA
ATOM     25  H           0     134.477 133.478 148.028  0.00  0.00     0.213 HD
ENDBRANCH  18  24
BRANCH   6  26
ATOM     26  C           0     135.420 130.497 146.412  0.00  0.00     0.192 C 
BRANCH  26  27
ATOM     27  O           0     135.488 129.096 146.136  0.00  0.00    -0.399 OA
ATOM     28  H           0     135.618 129.004 145.183  0.00  0.00     0.209 HD
ENDBRANCH  26  27
ENDBRANCH   6  26
TORSDOF 4
ENDMDL
