MODEL 1
REMARK VINA RESULT:      -7.7      0.000      0.000
REMARK  7 active torsions:
REMARK  status: ('A' for Active; 'I' for Inactive)
REMARK    1  A    between atoms: C_6  and  O_7 
REMARK    2  A    between atoms: C_10  and  O_11 
REMARK    3  A    between atoms: C_15  and  O_16 
REMARK    4  A    between atoms: C_18  and  O_19 
REMARK    5  A    between atoms: C_18  and  C_20 
REMARK    6  A    between atoms: C_20  and  O_21 
REMARK    7  A    between atoms: C_23  and  O_24 
ROOT
ATOM      1  N           0     133.683 135.259 139.355  0.00  0.00    -0.235 N 
ATOM      2  H           0     133.337 134.824 138.560  0.00  0.00     0.174 HD
ATOM      3  H           0     134.136 136.114 139.282  0.00  0.00     0.174 HD
ATOM      4  C           0     133.536 134.698 140.522  0.00  0.00     0.670 C 
ATOM      5  N           0     132.891 133.480 140.667  0.00  0.00    -0.200 N 
ATOM      6  C           0     133.478 132.495 141.593  0.00  0.00     0.244 C 
ATOM      7  C           0     133.767 133.197 142.923  0.00  0.00     0.101 C 
ATOM      8  C           0     134.664 134.412 142.657  0.00  0.00     0.119 C 
ATOM      9  C           0     136.000 133.899 142.102  0.00  0.00     0.243 C 
ATOM     10  N           0     134.023 135.287 141.683  0.00  0.00    -0.211 N 
ATOM     11  C           0     134.482 132.247 143.882  0.00  0.00     0.177 C 
ATOM     12  O           0     135.741 131.841 143.357  0.00  0.00    -0.322 OA
ATOM     13  C           0     136.585 132.965 143.167  0.00  0.00     0.311 C 
ATOM     14  O           0     136.853 133.687 144.356  0.00  0.00    -0.319 OA
ATOM     15  C           0     134.715 132.978 145.213  0.00  0.00     0.134 C 
ATOM     16  C           0     135.642 134.174 144.925  0.00  0.00     0.198 C 
ATOM     17  C           0     134.942 135.136 143.973  0.00  0.00     0.182 C 
ATOM     18  H           0     132.078 133.282 140.177  0.00  0.00     0.180 HD
ATOM     19  H           0     133.934 136.240 141.839  0.00  0.00     0.178 HD
ENDROOT
BRANCH  15  20
ATOM     20  O           0     133.470 133.448 145.732  0.00  0.00    -0.382 OA
ATOM     21  H           0     133.264 132.903 146.503  0.00  0.00     0.210 HD
ENDBRANCH  15  20
BRANCH  15  22
ATOM     22  C           0     135.371 132.029 146.218  0.00  0.00     0.207 C 
BRANCH  22  23
ATOM     23  O           0     134.918 130.695 145.978  0.00  0.00    -0.398 OA
ATOM     24  H           0     134.871 130.584 145.019  0.00  0.00     0.209 HD
ENDBRANCH  22  23
ENDBRANCH  15  22
BRANCH  17  25
ATOM     25  O           0     135.782 136.266 143.731  0.00  0.00    -0.390 OA
ATOM     26  H           0     135.972 136.663 144.592  0.00  0.00     0.210 HD
ENDBRANCH  17  25
BRANCH   6  27
ATOM     27  O           0     132.557 131.423 141.804  0.00  0.00    -0.376 OA
ATOM     28  H           0     132.200 131.187 140.935  0.00  0.00     0.212 HD
ENDBRANCH   6  27
BRANCH  13  29
ATOM     29  O           0     137.842 132.487 142.682  0.00  0.00    -0.341 OA
ATOM     30  H           0     138.459 133.228 142.728  0.00  0.00     0.215 HD
ENDBRANCH  13  29
BRANCH   9  31
ATOM     31  O           0     135.782 133.182 140.885  0.00  0.00    -0.385 OA
ATOM     32  H           0     135.406 132.325 141.128  0.00  0.00     0.210 HD
ENDBRANCH   9  31
TORSDOF 7
ENDMDL
MODEL 2
REMARK VINA RESULT:      -7.7      2.009      3.172
REMARK  7 active torsions:
REMARK  status: ('A' for Active; 'I' for Inactive)
REMARK    1  A    between atoms: C_6  and  O_7 
REMARK    2  A    between atoms: C_10  and  O_11 
REMARK    3  A    between atoms: C_15  and  O_16 
REMARK    4  A    between atoms: C_18  and  O_19 
REMARK    5  A    between atoms: C_18  and  C_20 
REMARK    6  A    between atoms: C_20  and  O_21 
REMARK    7  A    between atoms: C_23  and  O_24 
ROOT
ATOM      1  N           0     134.122 136.847 142.185  0.00  0.00    -0.235 N 
ATOM      2  H           0     133.286 137.328 142.283  0.00  0.00     0.174 HD
ATOM      3  H           0     134.600 136.870 141.342  0.00  0.00     0.174 HD
ATOM      4  C           0     134.606 136.171 143.190  0.00  0.00     0.670 C 
ATOM      5  N           0     133.955 136.118 144.412  0.00  0.00    -0.200 N 
ATOM      6  C           0     133.899 134.820 145.106  0.00  0.00     0.244 C 
ATOM      7  C           0     135.311 134.229 145.140  0.00  0.00     0.101 C 
ATOM      8  C           0     135.845 134.143 143.704  0.00  0.00     0.119 C 
ATOM      9  C           0     134.951 133.169 142.926  0.00  0.00     0.243 C 
ATOM     10  N           0     135.799 135.464 143.087  0.00  0.00    -0.211 N 
ATOM     11  C           0     135.289 132.828 145.750  0.00  0.00     0.177 C 
ATOM     12  O           0     134.498 131.941 144.967  0.00  0.00    -0.322 OA
ATOM     13  C           0     135.031 131.824 143.658  0.00  0.00     0.311 C 
ATOM     14  O           0     136.356 131.326 143.622  0.00  0.00    -0.319 OA
ATOM     15  C           0     136.727 132.293 145.799  0.00  0.00     0.134 C 
ATOM     16  C           0     137.230 132.186 144.347  0.00  0.00     0.198 C 
ATOM     17  C           0     137.264 133.577 143.723  0.00  0.00     0.182 C 
ATOM     18  H           0     133.552 136.910 144.799  0.00  0.00     0.180 HD
ATOM     19  H           0     136.567 135.837 142.629  0.00  0.00     0.178 HD
ENDROOT
BRANCH  15  20
ATOM     20  O           0     137.557 133.198 146.530  0.00  0.00    -0.382 OA
ATOM     21  H           0     137.442 134.069 146.128  0.00  0.00     0.210 HD
ENDBRANCH  15  20
BRANCH  15  22
ATOM     22  C           0     136.745 130.916 146.467  0.00  0.00     0.207 C 
BRANCH  22  23
ATOM     23  O           0     137.941 130.225 146.101  0.00  0.00    -0.398 OA
ATOM     24  H           0     138.648 130.577 146.658  0.00  0.00     0.209 HD
ENDBRANCH  22  23
ENDBRANCH  15  22
BRANCH  17  25
ATOM     25  O           0     137.764 133.491 142.388  0.00  0.00    -0.390 OA
ATOM     26  H           0     137.222 134.084 141.848  0.00  0.00     0.210 HD
ENDBRANCH  17  25
BRANCH   6  27
ATOM     27  O           0     133.424 135.008 146.441  0.00  0.00    -0.376 OA
ATOM     28  H           0     134.060 134.573 147.028  0.00  0.00     0.212 HD
ENDBRANCH   6  27
BRANCH  13  29
ATOM     29  O           0     134.219 130.891 142.941  0.00  0.00    -0.341 OA
ATOM     30  H           0     133.435 130.729 143.483  0.00  0.00     0.215 HD
ENDBRANCH  13  29
BRANCH   9  31
ATOM     31  O           0     133.603 133.643 142.914  0.00  0.00    -0.385 OA
ATOM     32  H           0     133.502 134.219 143.684  0.00  0.00     0.210 HD
ENDBRANCH   9  31
TORSDOF 7
ENDMDL
MODEL 3
REMARK VINA RESULT:      -7.6      2.605      4.749
REMARK  7 active torsions:
REMARK  status: ('A' for Active; 'I' for Inactive)
REMARK    1  A    between atoms: C_6  and  O_7 
REMARK    2  A    between atoms: C_10  and  O_11 
REMARK    3  A    between atoms: C_15  and  O_16 
REMARK    4  A    between atoms: C_18  and  O_19 
REMARK    5  A    between atoms: C_18  and  C_20 
REMARK    6  A    between atoms: C_20  and  O_21 
REMARK    7  A    between atoms: C_23  and  O_24 
ROOT
ATOM      1  N           0     135.647 132.263 147.825  0.00  0.00    -0.235 N 
ATOM      2  H           0     135.763 132.846 148.592  0.00  0.00     0.174 HD
ATOM      3  H           0     136.064 131.387 147.814  0.00  0.00     0.174 HD
ATOM      4  C           0     134.927 132.655 146.812  0.00  0.00     0.670 C 
ATOM      5  N           0     134.311 133.896 146.794  0.00  0.00    -0.200 N 
ATOM      6  C           0     134.349 134.665 145.538  0.00  0.00     0.244 C 
ATOM      7  C           0     133.906 133.746 144.396  0.00  0.00     0.101 C 
ATOM      8  C           0     134.800 132.499 144.389  0.00  0.00     0.119 C 
ATOM      9  C           0     136.236 132.951 144.092  0.00  0.00     0.243 C 
ATOM     10  N           0     134.741 131.850 145.693  0.00  0.00    -0.211 N 
ATOM     11  C           0     134.036 134.463 143.053  0.00  0.00     0.177 C 
ATOM     12  O           0     135.390 134.812 142.788  0.00  0.00    -0.322 OA
ATOM     13  C           0     136.200 133.650 142.728  0.00  0.00     0.311 C 
ATOM     14  O           0     135.812 132.734 141.720  0.00  0.00    -0.319 OA
ATOM     15  C           0     133.545 133.520 141.945  0.00  0.00     0.134 C 
ATOM     16  C           0     134.475 132.293 141.937  0.00  0.00     0.198 C 
ATOM     17  C           0     134.354 131.561 143.269  0.00  0.00     0.182 C 
ATOM     18  H           0     133.868 134.247 147.581  0.00  0.00     0.180 HD
ATOM     19  H           0     134.575 130.899 145.780  0.00  0.00     0.178 HD
ENDROOT
BRANCH  15  20
ATOM     20  O           0     132.205 133.106 142.219  0.00  0.00    -0.382 OA
ATOM     21  H           0     131.626 133.639 141.657  0.00  0.00     0.210 HD
ENDBRANCH  15  20
BRANCH  15  22
ATOM     22  C           0     133.601 134.235 140.593  0.00  0.00     0.207 C 
BRANCH  22  23
ATOM     23  O           0     133.516 135.647 140.798  0.00  0.00    -0.398 OA
ATOM     24  H           0     134.397 136.007 140.628  0.00  0.00     0.209 HD
ENDBRANCH  22  23
ENDBRANCH  15  22
BRANCH  17  25
ATOM     25  O           0     135.188 130.401 143.255  0.00  0.00    -0.390 OA
ATOM     26  H           0     135.637 130.370 144.111  0.00  0.00     0.210 HD
ENDBRANCH  17  25
BRANCH   6  27
ATOM     27  O           0     133.461 135.782 145.629  0.00  0.00    -0.376 OA
ATOM     28  H           0     132.781 135.545 146.276  0.00  0.00     0.212 HD
ENDBRANCH   6  27
BRANCH  13  29
ATOM     29  O           0     137.532 134.065 142.418  0.00  0.00    -0.341 OA
ATOM     30  H           0     137.525 134.362 141.498  0.00  0.00     0.215 HD
ENDBRANCH  13  29
BRANCH   9  31
ATOM     31  O           0     136.682 133.862 145.099  0.00  0.00    -0.385 OA
ATOM     32  H           0     137.387 133.416 145.587  0.00  0.00     0.210 HD
ENDBRANCH   9  31
TORSDOF 7
ENDMDL
MODEL 4
REMARK VINA RESULT:      -7.2      3.004      4.958
REMARK  7 active torsions:
REMARK  status: ('A' for Active; 'I' for Inactive)
REMARK    1  A    between atoms: C_6  and  O_7 
REMARK    2  A    between atoms: C_10  and  O_11 
REMARK    3  A    between atoms: C_15  and  O_16 
REMARK    4  A    between atoms: C_18  and  O_19 
REMARK    5  A    between atoms: C_18  and  C_20 
REMARK    6  A    between atoms: C_20  and  O_21 
REMARK    7  A    between atoms: C_23  and  O_24 
ROOT
ATOM      1  N           0     136.320 128.926 146.580  0.00  0.00    -0.235 N 
ATOM      2  H           0     136.917 128.722 147.317  0.00  0.00     0.174 HD
ATOM      3  H           0     136.040 128.222 145.974  0.00  0.00     0.174 HD
ATOM      4  C           0     135.892 130.144 146.405  0.00  0.00     0.670 C 
ATOM      5  N           0     136.265 131.175 147.252  0.00  0.00    -0.200 N 
ATOM      6  C           0     136.602 132.476 146.648  0.00  0.00     0.244 C 
ATOM      7  C           0     135.482 132.859 145.675  0.00  0.00     0.101 C 
ATOM      8  C           0     135.304 131.727 144.656  0.00  0.00     0.119 C 
ATOM      9  C           0     136.604 131.612 143.847  0.00  0.00     0.243 C 
ATOM     10  N           0     135.041 130.476 145.357  0.00  0.00    -0.211 N 
ATOM     11  C           0     135.837 134.148 144.935  0.00  0.00     0.177 C 
ATOM     12  O           0     137.014 133.982 144.152  0.00  0.00    -0.322 OA
ATOM     13  C           0     136.822 132.972 143.175  0.00  0.00     0.311 C 
ATOM     14  O           0     135.766 133.245 142.271  0.00  0.00    -0.319 OA
ATOM     15  C           0     134.672 134.514 144.004  0.00  0.00     0.134 C 
ATOM     16  C           0     134.533 133.379 142.972  0.00  0.00     0.198 C 
ATOM     17  C           0     134.173 132.085 143.692  0.00  0.00     0.182 C 
ATOM     18  H           0     136.303 131.045 148.213  0.00  0.00     0.180 HD
ATOM     19  H           0     134.301 129.901 145.108  0.00  0.00     0.178 HD
ENDROOT
BRANCH  15  20
ATOM     20  O           0     133.465 134.628 144.759  0.00  0.00    -0.382 OA
ATOM     21  H           0     133.722 134.727 145.685  0.00  0.00     0.210 HD
ENDBRANCH  15  20
BRANCH  15  22
ATOM     22  C           0     134.970 135.838 143.297  0.00  0.00     0.207 C 
BRANCH  22  23
ATOM     23  O           0     134.161 135.944 142.125  0.00  0.00    -0.398 OA
ATOM     24  H           0     133.394 135.372 142.263  0.00  0.00     0.209 HD
ENDBRANCH  22  23
ENDBRANCH  15  22
BRANCH  17  25
ATOM     25  O           0     134.008 131.035 142.737  0.00  0.00    -0.390 OA
ATOM     26  H           0     133.552 130.314 143.192  0.00  0.00     0.210 HD
ENDBRANCH  17  25
BRANCH   6  27
ATOM     27  O           0     136.712 133.469 147.670  0.00  0.00    -0.376 OA
ATOM     28  H           0     137.292 134.163 147.325  0.00  0.00     0.212 HD
ENDBRANCH   6  27
BRANCH  13  29
ATOM     29  O           0     138.019 132.886 142.399  0.00  0.00    -0.341 OA
ATOM     30  H           0     138.754 133.066 143.000  0.00  0.00     0.215 HD
ENDBRANCH  13  29
BRANCH   9  31
ATOM     31  O           0     137.697 131.312 144.718  0.00  0.00    -0.385 OA
ATOM     32  H           0     137.366 131.394 145.622  0.00  0.00     0.210 HD
ENDBRANCH   9  31
TORSDOF 7
ENDMDL
MODEL 5
REMARK VINA RESULT:      -7.1      1.680      3.702
REMARK  7 active torsions:
REMARK  status: ('A' for Active; 'I' for Inactive)
REMARK    1  A    between atoms: C_6  and  O_7 
REMARK    2  A    between atoms: C_10  and  O_11 
REMARK    3  A    between atoms: C_15  and  O_16 
REMARK    4  A    between atoms: C_18  and  O_19 
REMARK    5  A    between atoms: C_18  and  C_20 
REMARK    6  A    between atoms: C_20  and  O_21 
REMARK    7  A    between atoms: C_23  and  O_24 
ROOT
ATOM      1  N           0     132.684 133.620 141.041  0.00  0.00    -0.235 N 
ATOM      2  H           0     132.177 134.421 140.836  0.00  0.00     0.174 HD
ATOM      3  H           0     132.323 132.747 140.819  0.00  0.00     0.174 HD
ATOM      4  C           0     133.851 133.716 141.613  0.00  0.00     0.670 C 
ATOM      5  N           0     134.401 134.945 141.941  0.00  0.00    -0.200 N 
ATOM      6  C           0     135.078 135.071 143.244  0.00  0.00     0.244 C 
ATOM      7  C           0     136.058 133.903 143.393  0.00  0.00     0.101 C 
ATOM      8  C           0     135.289 132.588 143.216  0.00  0.00     0.119 C 
ATOM      9  C           0     134.264 132.483 144.354  0.00  0.00     0.243 C 
ATOM     10  N           0     134.605 132.592 141.928  0.00  0.00    -0.211 N 
ATOM     11  C           0     136.704 133.923 144.777  0.00  0.00     0.177 C 
ATOM     12  O           0     135.728 133.765 145.800  0.00  0.00    -0.322 OA
ATOM     13  C           0     135.061 132.521 145.663  0.00  0.00     0.311 C 
ATOM     14  O           0     135.921 131.399 145.744  0.00  0.00    -0.319 OA
ATOM     15  C           0     137.705 132.762 144.867  0.00  0.00     0.134 C 
ATOM     16  C           0     136.907 131.453 144.717  0.00  0.00     0.198 C 
ATOM     17  C           0     136.259 131.413 143.338  0.00  0.00     0.182 C 
ATOM     18  H           0     134.344 135.698 141.333  0.00  0.00     0.180 HD
ATOM     19  H           0     134.676 131.845 141.313  0.00  0.00     0.178 HD
ENDROOT
BRANCH  15  20
ATOM     20  O           0     138.662 132.864 143.811  0.00  0.00    -0.382 OA
ATOM     21  H           0     139.482 132.468 144.136  0.00  0.00     0.210 HD
ENDBRANCH  15  20
BRANCH  15  22
ATOM     22  C           0     138.418 132.796 146.220  0.00  0.00     0.207 C 
BRANCH  22  23
ATOM     23  O           0     138.664 131.459 146.661  0.00  0.00    -0.398 OA
ATOM     24  H           0     138.943 131.517 147.585  0.00  0.00     0.209 HD
ENDBRANCH  22  23
ENDBRANCH  15  22
BRANCH  17  25
ATOM     25  O           0     135.546 130.185 143.179  0.00  0.00    -0.390 OA
ATOM     26  H           0     134.876 130.159 143.877  0.00  0.00     0.210 HD
ENDBRANCH  17  25
BRANCH   6  27
ATOM     27  O           0     135.791 136.308 143.299  0.00  0.00    -0.376 OA
ATOM     28  H           0     136.226 136.342 144.163  0.00  0.00     0.212 HD
ENDBRANCH   6  27
BRANCH  13  29
ATOM     29  O           0     134.129 132.407 146.741  0.00  0.00    -0.341 OA
ATOM     30  H           0     133.502 133.135 146.645  0.00  0.00     0.215 HD
ENDBRANCH  13  29
BRANCH   9  31
ATOM     31  O           0     133.357 133.586 144.298  0.00  0.00    -0.385 OA
ATOM     32  H           0     133.512 134.034 143.456  0.00  0.00     0.210 HD
ENDBRANCH   9  31
TORSDOF 7
ENDMDL
MODEL 6
REMARK VINA RESULT:      -6.9      2.216      4.077
REMARK  7 active torsions:
REMARK  status: ('A' for Active; 'I' for Inactive)
REMARK    1  A    between atoms: C_6  and  O_7 
REMARK    2  A    between atoms: C_10  and  O_11 
REMARK    3  A    between atoms: C_15  and  O_16 
REMARK    4  A    between atoms: C_18  and  O_19 
REMARK    5  A    between atoms: C_18  and  C_20 
REMARK    6  A    between atoms: C_20  and  O_21 
REMARK    7  A    between atoms: C_23  and  O_24 
ROOT
ATOM      1  N           0     132.970 132.112 141.857  0.00  0.00    -0.235 N 
ATOM      2  H           0     132.817 132.666 141.075  0.00  0.00     0.174 HD
ATOM      3  H           0     132.232 131.632 142.264  0.00  0.00     0.174 HD
ATOM      4  C           0     134.168 132.012 142.360  0.00  0.00     0.670 C 
ATOM      5  N           0     135.249 132.680 141.805  0.00  0.00    -0.200 N 
ATOM      6  C           0     136.208 133.319 142.721  0.00  0.00     0.244 C 
ATOM      7  C           0     136.605 132.300 143.793  0.00  0.00     0.101 C 
ATOM      8  C           0     135.334 131.787 144.482  0.00  0.00     0.119 C 
ATOM      9  C           0     134.671 132.975 145.193  0.00  0.00     0.243 C 
ATOM     10  N           0     134.427 131.234 143.483  0.00  0.00    -0.211 N 
ATOM     11  C           0     137.513 132.948 144.836  0.00  0.00     0.177 C 
ATOM     12  O           0     136.842 134.005 145.513  0.00  0.00    -0.322 OA
ATOM     13  C           0     135.699 133.513 146.194  0.00  0.00     0.311 C 
ATOM     14  O           0     135.995 132.529 147.168  0.00  0.00    -0.319 OA
ATOM     15  C           0     137.916 131.882 145.865  0.00  0.00     0.134 C 
ATOM     16  C           0     136.629 131.406 146.564  0.00  0.00     0.198 C 
ATOM     17  C           0     135.712 130.750 145.539  0.00  0.00     0.182 C 
ATOM     18  H           0     135.370 132.723 140.844  0.00  0.00     0.180 HD
ATOM     19  H           0     134.023 130.360 143.592  0.00  0.00     0.178 HD
ENDROOT
BRANCH  15  20
ATOM     20  O           0     138.539 130.780 145.203  0.00  0.00    -0.382 OA
ATOM     21  H           0     138.475 130.022 145.799  0.00  0.00     0.210 HD
ENDBRANCH  15  20
BRANCH  15  22
ATOM     22  C           0     138.881 132.487 146.887  0.00  0.00     0.207 C 
BRANCH  22  23
ATOM     23  O           0     138.639 131.907 148.170  0.00  0.00    -0.398 OA
ATOM     24  H           0     137.699 131.681 148.202  0.00  0.00     0.209 HD
ENDBRANCH  22  23
ENDBRANCH  15  22
BRANCH  17  25
ATOM     25  O           0     134.532 130.274 146.187  0.00  0.00    -0.390 OA
ATOM     26  H           0     134.048 131.053 146.493  0.00  0.00     0.210 HD
ENDBRANCH  17  25
BRANCH   6  27
ATOM     27  O           0     137.369 133.730 141.995  0.00  0.00    -0.376 OA
ATOM     28  H           0     137.725 134.505 142.452  0.00  0.00     0.212 HD
ENDBRANCH   6  27
BRANCH  13  29
ATOM     29  O           0     135.099 134.612 146.884  0.00  0.00    -0.341 OA
ATOM     30  H           0     135.603 135.401 146.644  0.00  0.00     0.215 HD
ENDBRANCH  13  29
BRANCH   9  31
ATOM     31  O           0     134.332 133.988 144.242  0.00  0.00    -0.385 OA
ATOM     32  H           0     133.611 133.636 143.704  0.00  0.00     0.210 HD
ENDBRANCH   9  31
TORSDOF 7
ENDMDL
MODEL 7
REMARK VINA RESULT:      -6.8      2.804      4.763
REMARK  7 active torsions:
REMARK  status: ('A' for Active; 'I' for Inactive)
REMARK    1  A    between atoms: C_6  and  O_7 
REMARK    2  A    between atoms: C_10  and  O_11 
REMARK    3  A    between atoms: C_15  and  O_16 
REMARK    4  A    between atoms: C_18  and  O_19 
REMARK    5  A    between atoms: C_18  and  C_20 
REMARK    6  A    between atoms: C_20  and  O_21 
REMARK    7  A    between atoms: C_23  and  O_24 
ROOT
ATOM      1  N           0     138.178 132.134 147.114  0.00  0.00    -0.235 N 
ATOM      2  H           0     138.128 131.363 147.701  0.00  0.00     0.174 HD
ATOM      3  H           0     138.671 132.923 147.389  0.00  0.00     0.174 HD
ATOM      4  C           0     137.586 132.108 145.953  0.00  0.00     0.670 C 
ATOM      5  N           0     136.877 130.997 145.523  0.00  0.00    -0.200 N 
ATOM      6  C           0     135.590 131.223 144.842  0.00  0.00     0.244 C 
ATOM      7  C           0     135.801 132.275 143.749  0.00  0.00     0.101 C 
ATOM      8  C           0     136.398 133.537 144.386  0.00  0.00     0.119 C 
ATOM      9  C           0     135.369 134.096 145.377  0.00  0.00     0.243 C 
ATOM     10  N           0     137.630 133.193 145.086  0.00  0.00    -0.211 N 
ATOM     11  C           0     134.471 132.630 143.086  0.00  0.00     0.177 C 
ATOM     12  O           0     133.567 133.199 144.026  0.00  0.00    -0.322 OA
ATOM     13  C           0     134.101 134.396 144.568  0.00  0.00     0.311 C 
ATOM     14  O           0     134.365 135.395 143.600  0.00  0.00    -0.319 OA
ATOM     15  C           0     134.736 133.655 141.974  0.00  0.00     0.134 C 
ATOM     16  C           0     135.305 134.922 142.640  0.00  0.00     0.198 C 
ATOM     17  C           0     136.637 134.588 143.303  0.00  0.00     0.182 C 
ATOM     18  H           0     137.217 130.100 145.664  0.00  0.00     0.180 HD
ATOM     19  H           0     138.447 133.697 144.951  0.00  0.00     0.178 HD
ENDROOT
BRANCH  15  20
ATOM     20  O           0     135.689 133.130 141.048  0.00  0.00    -0.382 OA
ATOM     21  H           0     135.744 132.178 141.211  0.00  0.00     0.210 HD
ENDBRANCH  15  20
BRANCH  15  22
ATOM     22  C           0     133.430 133.980 141.246  0.00  0.00     0.207 C 
BRANCH  22  23
ATOM     23  O           0     133.447 135.345 140.827  0.00  0.00    -0.398 OA
ATOM     24  H           0     133.315 135.883 141.620  0.00  0.00     0.209 HD
ENDBRANCH  22  23
ENDBRANCH  15  22
BRANCH  17  25
ATOM     25  O           0     137.187 135.767 143.892  0.00  0.00    -0.390 OA
ATOM     26  H           0     137.871 135.476 144.511  0.00  0.00     0.210 HD
ENDBRANCH  17  25
BRANCH   6  27
ATOM     27  O           0     135.135 130.003 144.254  0.00  0.00    -0.376 OA
ATOM     28  H           0     134.207 130.137 144.014  0.00  0.00     0.212 HD
ENDBRANCH   6  27
BRANCH  13  29
ATOM     29  O           0     133.131 134.936 145.467  0.00  0.00    -0.341 OA
ATOM     30  H           0     133.535 134.941 146.344  0.00  0.00     0.215 HD
ENDBRANCH  13  29
BRANCH   9  31
ATOM     31  O           0     135.088 133.128 146.391  0.00  0.00    -0.385 OA
ATOM     32  H           0     134.651 132.385 145.954  0.00  0.00     0.210 HD
ENDBRANCH   9  31
TORSDOF 7
ENDMDL
MODEL 8
REMARK VINA RESULT:      -6.7      1.899      2.600
REMARK  7 active torsions:
REMARK  status: ('A' for Active; 'I' for Inactive)
REMARK    1  A    between atoms: C_6  and  O_7 
REMARK    2  A    between atoms: C_10  and  O_11 
REMARK    3  A    between atoms: C_15  and  O_16 
REMARK    4  A    between atoms: C_18  and  O_19 
REMARK    5  A    between atoms: C_18  and  C_20 
REMARK    6  A    between atoms: C_20  and  O_21 
REMARK    7  A    between atoms: C_23  and  O_24 
ROOT
ATOM      1  N           0     134.368 135.865 142.610  0.00  0.00    -0.235 N 
ATOM      2  H           0     134.099 135.840 141.678  0.00  0.00     0.174 HD
ATOM      3  H           0     134.672 136.696 143.006  0.00  0.00     0.174 HD
ATOM      4  C           0     134.317 134.780 143.331  0.00  0.00     0.670 C 
ATOM      5  N           0     133.883 133.575 142.802  0.00  0.00    -0.200 N 
ATOM      6  C           0     134.626 132.356 143.167  0.00  0.00     0.244 C 
ATOM      7  C           0     134.794 132.331 144.689  0.00  0.00     0.101 C 
ATOM      8  C           0     135.477 133.631 145.132  0.00  0.00     0.119 C 
ATOM      9  C           0     136.879 133.663 144.509  0.00  0.00     0.243 C 
ATOM     10  N           0     134.699 134.773 144.668  0.00  0.00    -0.211 N 
ATOM     11  C           0     135.658 131.143 145.110  0.00  0.00     0.177 C 
ATOM     12  O           0     136.967 131.241 144.560  0.00  0.00    -0.322 OA
ATOM     13  C           0     137.612 132.417 145.020  0.00  0.00     0.311 C 
ATOM     14  O           0     137.756 132.477 146.427  0.00  0.00    -0.319 OA
ATOM     15  C           0     135.766 131.135 146.642  0.00  0.00     0.134 C 
ATOM     16  C           0     136.482 132.434 147.060  0.00  0.00     0.198 C 
ATOM     17  C           0     135.631 133.631 146.653  0.00  0.00     0.182 C 
ATOM     18  H           0     133.114 133.534 142.213  0.00  0.00     0.180 HD
ATOM     19  H           0     134.452 135.496 145.265  0.00  0.00     0.178 HD
ENDROOT
BRANCH  15  20
ATOM     20  O           0     134.460 131.098 147.220  0.00  0.00    -0.382 OA
ATOM     21  H           0     134.216 130.166 147.301  0.00  0.00     0.210 HD
ENDBRANCH  15  20
BRANCH  15  22
ATOM     22  C           0     136.571 129.917 147.098  0.00  0.00     0.207 C 
BRANCH  22  23
ATOM     23  O           0     136.113 128.756 146.402  0.00  0.00    -0.398 OA
ATOM     24  H           0     136.674 128.660 145.620  0.00  0.00     0.209 HD
ENDBRANCH  22  23
ENDBRANCH  15  22
BRANCH  17  25
ATOM     25  O           0     136.271 134.838 147.069  0.00  0.00    -0.390 OA
ATOM     26  H           0     136.233 134.854 148.036  0.00  0.00     0.210 HD
ENDBRANCH  17  25
BRANCH   6  27
ATOM     27  O           0     133.896 131.202 142.744  0.00  0.00    -0.376 OA
ATOM     28  H           0     134.500 130.449 142.813  0.00  0.00     0.212 HD
ENDBRANCH   6  27
BRANCH  13  29
ATOM     29  O           0     138.930 132.433 144.467  0.00  0.00    -0.341 OA
ATOM     30  H           0     139.065 131.574 144.044  0.00  0.00     0.215 HD
ENDBRANCH  13  29
BRANCH   9  31
ATOM     31  O           0     136.783 133.628 143.084  0.00  0.00    -0.385 OA
ATOM     32  H           0     137.317 134.361 142.749  0.00  0.00     0.210 HD
ENDBRANCH   9  31
TORSDOF 7
ENDMDL
MODEL 9
REMARK VINA RESULT:      -6.5      8.534     10.464
REMARK  7 active torsions:
REMARK  status: ('A' for Active; 'I' for Inactive)
REMARK    1  A    between atoms: C_6  and  O_7 
REMARK    2  A    between atoms: C_10  and  O_11 
REMARK    3  A    between atoms: C_15  and  O_16 
REMARK    4  A    between atoms: C_18  and  O_19 
REMARK    5  A    between atoms: C_18  and  C_20 
REMARK    6  A    between atoms: C_20  and  O_21 
REMARK    7  A    between atoms: C_23  and  O_24 
ROOT
ATOM      1  N           0     129.889 131.676 136.707  0.00  0.00    -0.235 N 
ATOM      2  H           0     129.642 130.753 136.536  0.00  0.00     0.174 HD
ATOM      3  H           0     129.404 132.193 137.369  0.00  0.00     0.174 HD
ATOM      4  C           0     130.874 132.220 136.049  0.00  0.00     0.670 C 
ATOM      5  N           0     131.593 131.512 135.100  0.00  0.00    -0.200 N 
ATOM      6  C           0     131.945 132.202 133.847  0.00  0.00     0.244 C 
ATOM      7  C           0     132.568 133.556 134.201  0.00  0.00     0.101 C 
ATOM      8  C           0     131.586 134.335 135.086  0.00  0.00     0.119 C 
ATOM      9  C           0     130.321 134.606 134.260  0.00  0.00     0.243 C 
ATOM     10  N           0     131.253 133.540 136.262  0.00  0.00    -0.211 N 
ATOM     11  C           0     132.848 134.362 132.934  0.00  0.00     0.177 C 
ATOM     12  O           0     131.644 134.642 132.229  0.00  0.00    -0.322 OA
ATOM     13  C           0     130.765 135.411 133.034  0.00  0.00     0.311 C 
ATOM     14  O           0     131.301 136.659 133.436  0.00  0.00    -0.319 OA
ATOM     15  C           0     133.506 135.690 133.334  0.00  0.00     0.134 C 
ATOM     16  C           0     132.491 136.467 134.194  0.00  0.00     0.198 C 
ATOM     17  C           0     132.204 135.680 135.467  0.00  0.00     0.182 C 
ATOM     18  H           0     131.857 130.592 135.255  0.00  0.00     0.180 HD
ATOM     19  H           0     131.299 133.913 137.156  0.00  0.00     0.178 HD
ENDROOT
BRANCH  15  20
ATOM     20  O           0     134.687 135.436 134.096  0.00  0.00    -0.382 OA
ATOM     21  H           0     135.394 135.965 133.702  0.00  0.00     0.210 HD
ENDBRANCH  15  20
BRANCH  15  22
ATOM     22  C           0     133.860 136.492 132.079  0.00  0.00     0.207 C 
BRANCH  22  23
ATOM     23  O           0     133.692 137.886 132.343  0.00  0.00    -0.398 OA
ATOM     24  H           0     134.572 138.243 132.527  0.00  0.00     0.209 HD
ENDBRANCH  22  23
ENDBRANCH  15  22
BRANCH  17  25
ATOM     25  O           0     131.291 136.411 136.287  0.00  0.00    -0.390 OA
ATOM     26  H           0     131.081 135.846 137.044  0.00  0.00     0.210 HD
ENDBRANCH  17  25
BRANCH   6  27
ATOM     27  O           0     132.887 131.417 133.112  0.00  0.00    -0.376 OA
ATOM     28  H           0     133.466 132.038 132.647  0.00  0.00     0.212 HD
ENDBRANCH   6  27
BRANCH  13  29
ATOM     29  O           0     129.600 135.694 132.255  0.00  0.00    -0.341 OA
ATOM     30  H           0     129.873 136.301 131.555  0.00  0.00     0.215 HD
ENDBRANCH  13  29
BRANCH   9  31
ATOM     31  O           0     129.729 133.371 133.851  0.00  0.00    -0.385 OA
ATOM     32  H           0     130.274 133.025 133.131  0.00  0.00     0.210 HD
ENDBRANCH   9  31
TORSDOF 7
ENDMDL
