# created with PyMOL 2.3.4
@<TRIPOS>MOLECULE
ligand_out_0001
32 35 1                 
SMALL
USER_CHARGES
@<TRIPOS>ATOM
1	   N	133.683	135.259	139.355	N.3	1	UNK0	-0.235	
2	   N	132.891	133.480	140.667	N.pl3	1	UNK0	-0.200	
3	   N	134.023	135.287	141.683	N.3	1	UNK0	-0.211	
4	   C	133.536	134.698	140.522	C.3	1	UNK0	0.670	
5	   C	133.478	132.495	141.593	C.2	1	UNK0	0.244	
6	   C	133.767	133.197	142.923	C.3	1	UNK0	0.101	
7	   C	134.664	134.412	142.657	C.3	1	UNK0	0.119	
8	   C	136.000	133.899	142.102	C.2	1	UNK0	0.243	
9	   C	134.482	132.247	143.882	C.2	1	UNK0	0.177	
10	   C	136.585	132.965	143.167	C.3	1	UNK0	0.311	
11	   C	134.715	132.978	145.213	C.3	1	UNK0	0.134	
12	   C	135.642	134.174	144.925	C.2	1	UNK0	0.198	
13	   C	134.942	135.136	143.973	C.2	1	UNK0	0.182	
14	   C	135.371	132.029	146.218	C.2	1	UNK0	0.207	
15	   O	135.741	131.841	143.357	O.2	1	UNK0	-0.322	
16	   O	136.853	133.687	144.356	O.2	1	UNK0	-0.319	
17	   O	133.470	133.448	145.732	O.2	1	UNK0	-0.382	
18	   O	134.918	130.695	145.978	O.2	1	UNK0	-0.398	
19	   O	135.782	136.266	143.731	O.2	1	UNK0	-0.390	
20	   O	132.557	131.423	141.804	O.2	1	UNK0	-0.376	
21	   O	137.842	132.487	142.682	O.2	1	UNK0	-0.341	
22	   O	135.782	133.182	140.885	O.2	1	UNK0	-0.385	
23	   H	133.337	134.824	138.560	 H	1	UNK0	0.174	
24	   H	134.136	136.114	139.282	 H	1	UNK0	0.174	
25	   H	132.078	133.282	140.177	 H	1	UNK0	0.180	
26	   H	133.934	136.240	141.839	 H	1	UNK0	0.178	
27	   H	133.264	132.903	146.503	 H	1	UNK0	0.210	
28	   H	134.871	130.584	145.019	 H	1	UNK0	0.209	
29	   H	135.972	136.663	144.592	 H	1	UNK0	0.210	
30	   H	132.200	131.187	140.935	 H	1	UNK0	0.212	
31	   H	138.459	133.228	142.728	 H	1	UNK0	0.215	
32	   H	135.406	132.325	141.128	 H	1	UNK0	0.210	
@<TRIPOS>BOND
1 1 4 1
2 1 23 1
3 1 24 1
4 2 5 1
5 2 25 1
6 3 26 1
7 2 4 1
8 3 4 1
9 5 6 1
10 5 20 2
11 6 7 1
12 6 9 1
13 3 7 1
14 7 8 1
15 7 13 1
16 8 10 1
17 8 22 2
18 9 11 1
19 9 15 2
20 10 16 2
21 10 21 2
22 11 12 1
23 11 14 1
24 11 17 2
25 12 13 1
26 13 19 2
27 14 18 2
28 10 15 2
29 12 16 2
30 17 27 1
31 18 28 1
32 19 29 1
33 20 30 1
34 21 31 1
35 22 32 1
@<TRIPOS>SUBSTRUCTURE
1	UNK0	1	GROUP	1 ****	UNK
