# created with PyMOL 2.3.4
@<TRIPOS>MOLECULE
ligand_out_0001
32 34 1                 
SMALL
USER_CHARGES
@<TRIPOS>ATOM
1	   N	135.142	136.823	143.216	N.3	1	UNK0	-0.235	
2	   N	133.877	134.847	143.042	N.3	1	UNK0	-0.218	
3	   N	134.130	132.229	144.646	N.3	1	UNK0	-0.216	
4	   N	134.850	131.679	146.831	N.3	1	UNK0	-0.235	
5	   N	136.126	133.034	145.373	N.3	1	UNK0	-0.191	
6	   N	136.122	134.744	143.662	N.3	1	UNK0	-0.183	
7	   N	133.544	136.043	139.894	N.pl3	1	UNK0	-0.346	
8	   C	135.054	135.526	143.306	C.3	1	UNK0	0.672	
9	   C	133.964	133.474	142.553	C.3	1	UNK0	0.151	
10	   C	134.857	132.603	143.415	C.3	1	UNK0	0.180	
11	   C	135.024	132.277	145.687	C.3	1	UNK0	0.670	
12	   C	136.104	133.306	143.926	C.3	1	UNK0	0.217	
13	   C	137.532	135.150	143.805	C.3	1	UNK0	0.150	
14	   C	138.332	133.977	143.188	C.3	1	UNK0	0.093	
15	   C	137.384	132.754	143.272	C.3	1	UNK0	0.209	
16	   C	134.520	133.493	141.128	C.2	1	UNK0	0.208	
17	   C	133.478	134.801	139.373	C.2	1	UNK0	0.358	
18	   O	133.439	133.730	140.189	O.2	1	UNK0	-0.302	
19	   O	133.454	134.647	138.168	O.co2	1	UNK0	-0.239	
20	   O	137.962	131.730	144.083	O.2	1	UNK0	-0.362	
21	   O	137.097	132.255	141.964	O.2	1	UNK0	-0.362	
22	   H	134.368	137.346	142.957	 H	1	UNK0	0.174	
23	   H	135.983	137.267	143.412	 H	1	UNK0	0.174	
24	   H	134.047	131.158	146.988	 H	1	UNK0	0.174	
25	   H	135.524	131.753	147.525	 H	1	UNK0	0.174	
26	   H	133.016	135.273	143.180	 H	1	UNK0	0.178	
27	   H	133.191	131.992	144.708	 H	1	UNK0	0.178	
28	   H	136.804	133.337	145.997	 H	1	UNK0	0.180	
29	   H	133.563	136.165	140.856	 H	1	UNK0	0.161	
30	   H	133.571	136.814	139.306	 H	1	UNK0	0.161	
31	   H	138.356	132.170	144.850	 H	1	UNK0	0.213	
32	   H	137.133	133.011	141.363	 H	1	UNK0	0.213	
@<TRIPOS>BOND
1 1 8 1
2 1 22 1
3 1 23 1
4 2 9 1
5 2 26 1
6 3 11 1
7 3 27 1
8 4 24 1
9 4 25 1
10 5 28 1
11 6 13 1
12 7 29 1
13 7 30 1
14 2 8 1
15 6 8 1
16 9 10 1
17 9 16 1
18 3 10 1
19 10 12 1
20 4 11 1
21 5 11 1
22 5 12 1
23 6 12 1
24 12 15 1
25 13 14 1
26 14 15 1
27 15 20 2
28 15 21 2
29 16 18 2
30 7 17 1
31 17 19 2
32 17 18 2
33 20 31 1
34 21 32 1
@<TRIPOS>SUBSTRUCTURE
1	UNK0	1	GROUP	1 ****	UNK
