MODEL 1
REMARK VINA RESULT:      -8.0      0.000      0.000
REMARK  5 active torsions:
REMARK  status: ('A' for Active; 'I' for Inactive)
REMARK    1  A    between atoms: C_6  and  C_7 
REMARK    2  A    between atoms: C_7  and  O_8 
REMARK    3  A    between atoms: O_8  and  C_9 
REMARK       I    between atoms: C_9  and  N_10 
REMARK    4  A    between atoms: C_23  and  O_24 
REMARK    5  A    between atoms: C_23  and  O_25 
ROOT
ATOM      1  N           0     135.142 136.823 143.216  0.00  0.00    -0.235 N 
ATOM      2  H           0     134.368 137.346 142.957  0.00  0.00     0.174 HD
ATOM      3  H           0     135.983 137.267 143.412  0.00  0.00     0.174 HD
ATOM      4  C           0     135.054 135.526 143.306  0.00  0.00     0.672 C 
ATOM      5  N           0     133.877 134.847 143.042  0.00  0.00    -0.218 N 
ATOM      6  C           0     133.964 133.474 142.553  0.00  0.00     0.151 C 
ATOM      7  C           0     134.857 132.603 143.415  0.00  0.00     0.180 C 
ATOM      8  N           0     134.130 132.229 144.646  0.00  0.00    -0.216 N 
ATOM      9  C           0     135.024 132.277 145.687  0.00  0.00     0.670 C 
ATOM     10  N           0     134.850 131.679 146.831  0.00  0.00    -0.235 N 
ATOM     11  H           0     134.047 131.158 146.988  0.00  0.00     0.174 HD
ATOM     12  H           0     135.524 131.753 147.525  0.00  0.00     0.174 HD
ATOM     13  C           0     136.104 133.306 143.926  0.00  0.00     0.217 C 
ATOM     14  N           0     136.126 133.034 145.373  0.00  0.00    -0.191 N 
ATOM     15  N           0     136.122 134.744 143.662  0.00  0.00    -0.183 N 
ATOM     16  C           0     137.532 135.150 143.805  0.00  0.00     0.150 C 
ATOM     17  C           0     138.332 133.977 143.188  0.00  0.00     0.093 C 
ATOM     18  C           0     137.384 132.754 143.272  0.00  0.00     0.209 C 
ATOM     19  H           0     133.016 135.273 143.180  0.00  0.00     0.178 HD
ATOM     20  H           0     133.191 131.992 144.708  0.00  0.00     0.178 HD
ATOM     21  H           0     136.804 133.337 145.997  0.00  0.00     0.180 HD
ENDROOT
BRANCH   6  22
ATOM     22  C           0     134.520 133.493 141.128  0.00  0.00     0.208 C 
BRANCH  22  23
ATOM     23  O           0     133.439 133.730 140.189  0.00  0.00    -0.302 OA
BRANCH  23  24
ATOM     24  C           0     133.478 134.801 139.373  0.00  0.00     0.358 C 
ATOM     25  N           0     133.544 136.043 139.894  0.00  0.00    -0.346 N 
ATOM     26  H           0     133.563 136.165 140.856  0.00  0.00     0.161 HD
ATOM     27  H           0     133.571 136.814 139.306  0.00  0.00     0.161 HD
ATOM     28  O           0     133.454 134.647 138.168  0.00  0.00    -0.239 OA
ENDBRANCH  23  24
ENDBRANCH  22  23
ENDBRANCH   6  22
BRANCH  18  29
ATOM     29  O           0     137.962 131.730 144.083  0.00  0.00    -0.362 OA
ATOM     30  H           0     138.356 132.170 144.850  0.00  0.00     0.213 HD
ENDBRANCH  18  29
BRANCH  18  31
ATOM     31  O           0     137.097 132.255 141.964  0.00  0.00    -0.362 OA
ATOM     32  H           0     137.133 133.011 141.363  0.00  0.00     0.213 HD
ENDBRANCH  18  31
TORSDOF 5
ENDMDL
MODEL 2
REMARK VINA RESULT:      -7.9      2.106      5.733
REMARK  5 active torsions:
REMARK  status: ('A' for Active; 'I' for Inactive)
REMARK    1  A    between atoms: C_6  and  C_7 
REMARK    2  A    between atoms: C_7  and  O_8 
REMARK    3  A    between atoms: O_8  and  C_9 
REMARK       I    between atoms: C_9  and  N_10 
REMARK    4  A    between atoms: C_23  and  O_24 
REMARK    5  A    between atoms: C_23  and  O_25 
ROOT
ATOM      1  N           0     135.495 132.715 147.085  0.00  0.00    -0.235 N 
ATOM      2  H           0     135.801 132.964 147.971  0.00  0.00     0.174 HD
ATOM      3  H           0     134.883 131.970 146.975  0.00  0.00     0.174 HD
ATOM      4  C           0     135.902 133.383 146.042  0.00  0.00     0.672 C 
ATOM      5  N           0     136.770 134.456 146.148  0.00  0.00    -0.218 N 
ATOM      6  C           0     137.649 134.748 145.019  0.00  0.00     0.151 C 
ATOM      7  C           0     136.900 134.843 143.704  0.00  0.00     0.180 C 
ATOM      8  N           0     136.204 136.145 143.634  0.00  0.00    -0.216 N 
ATOM      9  C           0     134.974 135.928 143.061  0.00  0.00     0.670 C 
ATOM     10  N           0     134.245 136.860 142.516  0.00  0.00    -0.235 N 
ATOM     11  H           0     134.564 137.776 142.497  0.00  0.00     0.174 HD
ATOM     12  H           0     133.385 136.637 142.128  0.00  0.00     0.174 HD
ATOM     13  C           0     135.783 133.823 143.550  0.00  0.00     0.217 C 
ATOM     14  N           0     134.608 134.606 143.134  0.00  0.00    -0.191 N 
ATOM     15  N           0     135.502 133.066 144.770  0.00  0.00    -0.183 N 
ATOM     16  C           0     134.757 131.874 144.327  0.00  0.00     0.150 C 
ATOM     17  C           0     135.435 131.471 142.995  0.00  0.00     0.093 C 
ATOM     18  C           0     136.113 132.767 142.481  0.00  0.00     0.209 C 
ATOM     19  H           0     136.793 135.000 146.950  0.00  0.00     0.178 HD
ATOM     20  H           0     136.551 136.999 143.938  0.00  0.00     0.178 HD
ATOM     21  H           0     133.727 134.250 142.941  0.00  0.00     0.180 HD
ENDROOT
BRANCH   6  22
ATOM     22  C           0     138.697 133.639 144.910  0.00  0.00     0.208 C 
BRANCH  22  23
ATOM     23  O           0     139.477 133.588 146.133  0.00  0.00    -0.302 OA
BRANCH  23  24
ATOM     24  C           0     140.595 132.838 146.189  0.00  0.00     0.358 C 
ATOM     25  N           0     141.125 132.506 147.383  0.00  0.00    -0.346 N 
ATOM     26  H           0     140.701 132.808 148.203  0.00  0.00     0.161 HD
ATOM     27  H           0     141.930 131.967 147.423  0.00  0.00     0.161 HD
ATOM     28  O           0     141.124 132.461 145.163  0.00  0.00    -0.239 OA
ENDBRANCH  23  24
ENDBRANCH  22  23
ENDBRANCH   6  22
BRANCH  18  29
ATOM     29  O           0     135.568 133.145 141.215  0.00  0.00    -0.362 OA
ATOM     30  H           0     134.791 133.692 141.398  0.00  0.00     0.213 HD
ENDBRANCH  18  29
BRANCH  18  31
ATOM     31  O           0     137.527 132.584 142.382  0.00  0.00    -0.362 OA
ATOM     32  H           0     137.851 132.429 143.280  0.00  0.00     0.213 HD
ENDBRANCH  18  31
TORSDOF 5
ENDMDL
MODEL 3
REMARK VINA RESULT:      -7.7      2.601      3.719
REMARK  5 active torsions:
REMARK  status: ('A' for Active; 'I' for Inactive)
REMARK    1  A    between atoms: C_6  and  C_7 
REMARK    2  A    between atoms: C_7  and  O_8 
REMARK    3  A    between atoms: O_8  and  C_9 
REMARK       I    between atoms: C_9  and  N_10 
REMARK    4  A    between atoms: C_23  and  O_24 
REMARK    5  A    between atoms: C_23  and  O_25 
ROOT
ATOM      1  N           0     136.210 134.812 147.684  0.00  0.00    -0.235 N 
ATOM      2  H           0     135.355 134.735 148.135  0.00  0.00     0.174 HD
ATOM      3  H           0     136.756 135.605 147.812  0.00  0.00     0.174 HD
ATOM      4  C           0     136.630 133.851 146.910  0.00  0.00     0.672 C 
ATOM      5  N           0     135.891 132.699 146.700  0.00  0.00    -0.218 N 
ATOM      6  C           0     136.057 131.993 145.433  0.00  0.00     0.151 C 
ATOM      7  C           0     137.512 131.717 145.104  0.00  0.00     0.180 C 
ATOM      8  N           0     137.988 130.581 145.921  0.00  0.00    -0.216 N 
ATOM      9  C           0     139.270 130.867 146.322  0.00  0.00     0.670 C 
ATOM     10  N           0     140.124 129.975 146.737  0.00  0.00    -0.235 N 
ATOM     11  H           0     139.868 129.040 146.776  0.00  0.00     0.174 HD
ATOM     12  H           0     141.016 130.245 147.006  0.00  0.00     0.174 HD
ATOM     13  C           0     138.457 132.851 145.469  0.00  0.00     0.217 C 
ATOM     14  N           0     139.541 132.210 146.232  0.00  0.00    -0.191 N 
ATOM     15  N           0     137.827 133.917 146.248  0.00  0.00    -0.183 N 
ATOM     16  C           0     138.725 135.080 146.114  0.00  0.00     0.150 C 
ATOM     17  C           0     139.211 135.022 144.646  0.00  0.00     0.093 C 
ATOM     18  C           0     139.034 133.542 144.221  0.00  0.00     0.209 C 
ATOM     19  H           0     135.280 132.370 147.377  0.00  0.00     0.178 HD
ATOM     20  H           0     137.486 129.778 146.135  0.00  0.00     0.178 HD
ATOM     21  H           0     140.315 132.659 146.605  0.00  0.00     0.180 HD
ENDROOT
BRANCH   6  22
ATOM     22  C           0     135.450 132.840 144.313  0.00  0.00     0.208 C 
BRANCH  22  23
ATOM     23  O           0     135.492 132.097 143.067  0.00  0.00    -0.302 OA
BRANCH  23  24
ATOM     24  C           0     134.968 132.630 141.947  0.00  0.00     0.358 C 
ATOM     25  N           0     135.776 133.186 141.023  0.00  0.00    -0.346 N 
ATOM     26  H           0     136.736 133.202 141.164  0.00  0.00     0.161 HD
ATOM     27  H           0     135.398 133.570 140.216  0.00  0.00     0.161 HD
ATOM     28  O           0     133.766 132.609 141.769  0.00  0.00    -0.239 OA
ENDBRANCH  23  24
ENDBRANCH  22  23
ENDBRANCH   6  22
BRANCH  18  29
ATOM     29  O           0     140.295 132.971 143.868  0.00  0.00    -0.362 OA
ATOM     30  H           0     140.533 133.333 143.003  0.00  0.00     0.213 HD
ENDBRANCH  18  29
BRANCH  18  31
ATOM     31  O           0     138.117 133.442 143.129  0.00  0.00    -0.362 OA
ATOM     32  H           0     137.242 133.662 143.479  0.00  0.00     0.213 HD
ENDBRANCH  18  31
TORSDOF 5
ENDMDL
MODEL 4
REMARK VINA RESULT:      -7.3      3.171      5.767
REMARK  5 active torsions:
REMARK  status: ('A' for Active; 'I' for Inactive)
REMARK    1  A    between atoms: C_6  and  C_7 
REMARK    2  A    between atoms: C_7  and  O_8 
REMARK    3  A    between atoms: O_8  and  C_9 
REMARK       I    between atoms: C_9  and  N_10 
REMARK    4  A    between atoms: C_23  and  O_24 
REMARK    5  A    between atoms: C_23  and  O_25 
ROOT
ATOM      1  N           0     138.685 130.500 145.991  0.00  0.00    -0.235 N 
ATOM      2  H           0     138.280 129.808 146.536  0.00  0.00     0.174 HD
ATOM      3  H           0     139.637 130.477 145.807  0.00  0.00     0.174 HD
ATOM      4  C           0     137.949 131.458 145.500  0.00  0.00     0.672 C 
ATOM      5  N           0     136.586 131.532 145.729  0.00  0.00    -0.218 N 
ATOM      6  C           0     135.954 132.847 145.722  0.00  0.00     0.151 C 
ATOM      7  C           0     136.293 133.652 144.482  0.00  0.00     0.180 C 
ATOM      8  N           0     135.498 133.147 143.343  0.00  0.00    -0.216 N 
ATOM      9  C           0     136.310 133.153 142.235  0.00  0.00     0.670 C 
ATOM     10  N           0     135.875 133.125 141.007  0.00  0.00    -0.235 N 
ATOM     11  H           0     134.921 133.097 140.832  0.00  0.00     0.174 HD
ATOM     12  H           0     136.504 133.132 140.269  0.00  0.00     0.174 HD
ATOM     13  C           0     137.733 133.501 144.018  0.00  0.00     0.217 C 
ATOM     14  N           0     137.638 133.194 142.581  0.00  0.00    -0.191 N 
ATOM     15  N           0     138.476 132.461 144.729  0.00  0.00    -0.183 N 
ATOM     16  C           0     139.899 132.761 144.483  0.00  0.00     0.150 C 
ATOM     17  C           0     139.979 134.306 144.535  0.00  0.00     0.093 C 
ATOM     18  C           0     138.541 134.794 144.224  0.00  0.00     0.209 C 
ATOM     19  H           0     136.065 130.730 145.890  0.00  0.00     0.178 HD
ATOM     20  H           0     134.571 132.863 143.371  0.00  0.00     0.178 HD
ATOM     21  H           0     138.386 133.048 141.982  0.00  0.00     0.180 HD
ENDROOT
BRANCH   6  22
ATOM     22  C           0     136.417 133.624 146.956  0.00  0.00     0.208 C 
BRANCH  22  23
ATOM     23  O           0     135.500 133.381 148.054  0.00  0.00    -0.302 OA
BRANCH  23  24
ATOM     24  C           0     135.262 132.121 148.467  0.00  0.00     0.358 C 
ATOM     25  N           0     134.001 131.649 148.497  0.00  0.00    -0.346 N 
ATOM     26  H           0     133.263 132.216 148.221  0.00  0.00     0.161 HD
ATOM     27  H           0     133.829 130.742 148.795  0.00  0.00     0.161 HD
ATOM     28  O           0     136.186 131.411 148.812  0.00  0.00    -0.239 OA
ENDBRANCH  23  24
ENDBRANCH  22  23
ENDBRANCH   6  22
BRANCH  18  29
ATOM     29  O           0     138.531 135.588 143.036  0.00  0.00    -0.362 OA
ATOM     30  H           0     139.329 136.134 143.058  0.00  0.00     0.213 HD
ENDBRANCH  18  29
BRANCH  18  31
ATOM     31  O           0     138.018 135.537 145.326  0.00  0.00    -0.362 OA
ATOM     32  H           0     137.054 135.529 145.236  0.00  0.00     0.213 HD
ENDBRANCH  18  31
TORSDOF 5
ENDMDL
MODEL 5
REMARK VINA RESULT:      -6.8      5.332      9.867
REMARK  5 active torsions:
REMARK  status: ('A' for Active; 'I' for Inactive)
REMARK    1  A    between atoms: C_6  and  C_7 
REMARK    2  A    between atoms: C_7  and  O_8 
REMARK    3  A    between atoms: O_8  and  C_9 
REMARK       I    between atoms: C_9  and  N_10 
REMARK    4  A    between atoms: C_23  and  O_24 
REMARK    5  A    between atoms: C_23  and  O_25 
ROOT
ATOM      1  N           0     131.426 132.176 134.972  0.00  0.00    -0.235 N 
ATOM      2  H           0     130.838 131.830 135.661  0.00  0.00     0.174 HD
ATOM      3  H           0     131.804 131.575 134.310  0.00  0.00     0.174 HD
ATOM      4  C           0     131.706 133.448 134.931  0.00  0.00     0.672 C 
ATOM      5  N           0     131.188 134.346 135.849  0.00  0.00    -0.218 N 
ATOM      6  C           0     131.963 135.544 136.157  0.00  0.00     0.151 C 
ATOM      7  C           0     132.392 136.298 134.912  0.00  0.00     0.180 C 
ATOM      8  N           0     131.239 137.053 134.379  0.00  0.00    -0.216 N 
ATOM      9  C           0     131.282 136.962 133.009  0.00  0.00     0.670 C 
ATOM     10  N           0     130.663 137.776 132.201  0.00  0.00    -0.235 N 
ATOM     11  H           0     130.130 138.502 132.560  0.00  0.00     0.174 HD
ATOM     12  H           0     130.736 137.655 131.242  0.00  0.00     0.174 HD
ATOM     13  C           0     132.809 135.402 133.757  0.00  0.00     0.217 C 
ATOM     14  N           0     132.058 135.908 132.596  0.00  0.00    -0.191 N 
ATOM     15  N           0     132.535 133.983 133.981  0.00  0.00    -0.183 N 
ATOM     16  C           0     133.383 133.264 133.011  0.00  0.00     0.150 C 
ATOM     17  C           0     134.704 134.070 132.986  0.00  0.00     0.093 C 
ATOM     18  C           0     134.320 135.489 133.479  0.00  0.00     0.209 C 
ATOM     19  H           0     130.333 134.183 136.275  0.00  0.00     0.178 HD
ATOM     20  H           0     130.573 137.527 134.901  0.00  0.00     0.178 HD
ATOM     21  H           0     132.105 135.558 131.693  0.00  0.00     0.180 HD
ENDROOT
BRANCH   6  22
ATOM     22  C           0     133.211 135.137 136.942  0.00  0.00     0.208 C 
BRANCH  22  23
ATOM     23  O           0     132.821 134.353 138.099  0.00  0.00    -0.302 OA
BRANCH  23  24
ATOM     24  C           0     133.037 134.830 139.340  0.00  0.00     0.358 C 
ATOM     25  N           0     133.517 136.078 139.508  0.00  0.00    -0.346 N 
ATOM     26  H           0     133.708 136.633 138.735  0.00  0.00     0.161 HD
ATOM     27  H           0     133.673 136.422 140.402  0.00  0.00     0.161 HD
ATOM     28  O           0     132.798 134.135 140.308  0.00  0.00    -0.239 OA
ENDBRANCH  23  24
ENDBRANCH  22  23
ENDBRANCH   6  22
BRANCH  18  29
ATOM     29  O           0     134.591 136.458 132.465  0.00  0.00    -0.362 OA
ATOM     30  H           0     135.237 136.061 131.864  0.00  0.00     0.213 HD
ENDBRANCH  18  29
BRANCH  18  31
ATOM     31  O           0     135.029 135.808 134.678  0.00  0.00    -0.362 OA
ATOM     32  H           0     135.217 136.756 134.647  0.00  0.00     0.213 HD
ENDBRANCH  18  31
TORSDOF 5
ENDMDL
MODEL 6
REMARK VINA RESULT:      -6.8      3.880      5.887
REMARK  5 active torsions:
REMARK  status: ('A' for Active; 'I' for Inactive)
REMARK    1  A    between atoms: C_6  and  C_7 
REMARK    2  A    between atoms: C_7  and  O_8 
REMARK    3  A    between atoms: O_8  and  C_9 
REMARK       I    between atoms: C_9  and  N_10 
REMARK    4  A    between atoms: C_23  and  O_24 
REMARK    5  A    between atoms: C_23  and  O_25 
ROOT
ATOM      1  N           0     136.002 134.835 147.592  0.00  0.00    -0.235 N 
ATOM      2  H           0     136.374 135.727 147.522  0.00  0.00     0.174 HD
ATOM      3  H           0     135.456 134.596 148.359  0.00  0.00     0.174 HD
ATOM      4  C           0     136.230 133.957 146.656  0.00  0.00     0.672 C 
ATOM      5  N           0     136.997 134.251 145.542  0.00  0.00    -0.218 N 
ATOM      6  C           0     137.719 133.161 144.892  0.00  0.00     0.151 C 
ATOM      7  C           0     136.829 131.973 144.583  0.00  0.00     0.180 C 
ATOM      8  N           0     136.007 132.278 143.393  0.00  0.00    -0.216 N 
ATOM      9  C           0     134.751 131.769 143.615  0.00  0.00     0.670 C 
ATOM     10  N           0     133.881 131.527 142.675  0.00  0.00    -0.235 N 
ATOM     11  H           0     134.107 131.707 141.749  0.00  0.00     0.174 HD
ATOM     12  H           0     133.010 131.166 142.901  0.00  0.00     0.174 HD
ATOM     13  C           0     135.806 131.665 145.665  0.00  0.00     0.217 C 
ATOM     14  N           0     134.523 131.547 144.951  0.00  0.00    -0.191 N 
ATOM     15  N           0     135.730 132.682 146.713  0.00  0.00    -0.183 N 
ATOM     16  C           0     135.060 132.023 147.849  0.00  0.00     0.150 C 
ATOM     17  C           0     135.628 130.583 147.846  0.00  0.00     0.093 C 
ATOM     18  C           0     136.120 130.348 146.395  0.00  0.00     0.209 C 
ATOM     19  H           0     137.052 135.157 145.201  0.00  0.00     0.178 HD
ATOM     20  H           0     136.301 132.751 142.598  0.00  0.00     0.178 HD
ATOM     21  H           0     133.665 131.344 145.354  0.00  0.00     0.180 HD
ENDROOT
BRANCH   6  22
ATOM     22  C           0     138.852 132.702 145.812  0.00  0.00     0.208 C 
BRANCH  22  23
ATOM     23  O           0     139.827 133.768 145.950  0.00  0.00    -0.302 OA
BRANCH  23  24
ATOM     24  C           0     140.013 134.361 147.144  0.00  0.00     0.358 C 
ATOM     25  N           0     141.031 133.972 147.938  0.00  0.00    -0.346 N 
ATOM     26  H           0     141.629 133.264 147.649  0.00  0.00     0.161 HD
ATOM     27  H           0     141.165 134.398 148.799  0.00  0.00     0.161 HD
ATOM     28  O           0     139.265 135.247 147.506  0.00  0.00    -0.239 OA
ENDBRANCH  23  24
ENDBRANCH  22  23
ENDBRANCH   6  22
BRANCH  18  29
ATOM     29  O           0     135.410 129.260 145.799  0.00  0.00    -0.362 OA
ATOM     30  H           0     135.893 128.453 146.027  0.00  0.00     0.213 HD
ENDBRANCH  18  29
BRANCH  18  31
ATOM     31  O           0     137.526 130.095 146.380  0.00  0.00    -0.362 OA
ATOM     32  H           0     137.821 130.211 145.466  0.00  0.00     0.213 HD
ENDBRANCH  18  31
TORSDOF 5
ENDMDL
MODEL 7
REMARK VINA RESULT:      -6.7      2.547      4.217
REMARK  5 active torsions:
REMARK  status: ('A' for Active; 'I' for Inactive)
REMARK    1  A    between atoms: C_6  and  C_7 
REMARK    2  A    between atoms: C_7  and  O_8 
REMARK    3  A    between atoms: O_8  and  C_9 
REMARK       I    between atoms: C_9  and  N_10 
REMARK    4  A    between atoms: C_23  and  O_24 
REMARK    5  A    between atoms: C_23  and  O_25 
ROOT
ATOM      1  N           0     135.144 129.753 145.249  0.00  0.00    -0.235 N 
ATOM      2  H           0     134.823 129.170 144.544  0.00  0.00     0.174 HD
ATOM      3  H           0     134.974 129.529 146.178  0.00  0.00     0.174 HD
ATOM      4  C           0     135.807 130.835 144.951  0.00  0.00     0.672 C 
ATOM      5  N           0     136.078 131.195 143.642  0.00  0.00    -0.218 N 
ATOM      6  C           0     136.232 132.614 143.333  0.00  0.00     0.151 C 
ATOM      7  C           0     137.216 133.309 144.254  0.00  0.00     0.180 C 
ATOM      8  N           0     138.593 132.962 143.844  0.00  0.00    -0.216 N 
ATOM      9  C           0     139.333 132.781 144.987  0.00  0.00     0.670 C 
ATOM     10  N           0     140.634 132.823 145.033  0.00  0.00    -0.235 N 
ATOM     11  H           0     141.142 132.992 144.223  0.00  0.00     0.174 HD
ATOM     12  H           0     141.095 132.686 145.875  0.00  0.00     0.174 HD
ATOM     13  C           0     137.140 132.853 145.702  0.00  0.00     0.217 C 
ATOM     14  N           0     138.531 132.549 146.077  0.00  0.00    -0.191 N 
ATOM     15  N           0     136.275 131.692 145.912  0.00  0.00    -0.183 N 
ATOM     16  C           0     135.974 131.685 147.355  0.00  0.00     0.150 C 
ATOM     17  C           0     135.803 133.180 147.719  0.00  0.00     0.093 C 
ATOM     18  C           0     136.580 133.952 146.622  0.00  0.00     0.209 C 
ATOM     19  H           0     136.164 130.523 142.949  0.00  0.00     0.178 HD
ATOM     20  H           0     138.917 132.878 142.933  0.00  0.00     0.178 HD
ATOM     21  H           0     138.830 132.240 146.946  0.00  0.00     0.180 HD
ENDROOT
BRANCH   6  22
ATOM     22  C           0     134.870 133.297 143.461  0.00  0.00     0.208 C 
BRANCH  22  23
ATOM     23  O           0     135.027 134.729 143.281  0.00  0.00    -0.302 OA
BRANCH  23  24
ATOM     24  C           0     134.251 135.386 142.397  0.00  0.00     0.358 C 
ATOM     25  N           0     134.268 136.733 142.357  0.00  0.00    -0.346 N 
ATOM     26  H           0     134.838 137.230 142.966  0.00  0.00     0.161 HD
ATOM     27  H           0     133.709 137.206 141.721  0.00  0.00     0.161 HD
ATOM     28  O           0     133.538 134.764 141.635  0.00  0.00    -0.239 OA
ENDBRANCH  23  24
ENDBRANCH  22  23
ENDBRANCH   6  22
BRANCH  18  29
ATOM     29  O           0     137.641 134.711 147.204  0.00  0.00    -0.362 OA
ATOM     30  H           0     137.341 134.982 148.083  0.00  0.00     0.213 HD
ENDBRANCH  18  29
BRANCH  18  31
ATOM     31  O           0     135.696 134.807 145.893  0.00  0.00    -0.362 OA
ATOM     32  H           0     134.850 134.342 145.827  0.00  0.00     0.213 HD
ENDBRANCH  18  31
TORSDOF 5
ENDMDL
MODEL 8
REMARK VINA RESULT:      -6.7      3.320      6.137
REMARK  5 active torsions:
REMARK  status: ('A' for Active; 'I' for Inactive)
REMARK    1  A    between atoms: C_6  and  C_7 
REMARK    2  A    between atoms: C_7  and  O_8 
REMARK    3  A    between atoms: O_8  and  C_9 
REMARK       I    between atoms: C_9  and  N_10 
REMARK    4  A    between atoms: C_23  and  O_24 
REMARK    5  A    between atoms: C_23  and  O_25 
ROOT
ATOM      1  N           0     139.119 130.433 145.965  0.00  0.00    -0.235 N 
ATOM      2  H           0     139.291 129.584 146.402  0.00  0.00     0.174 HD
ATOM      3  H           0     139.854 130.940 145.586  0.00  0.00     0.174 HD
ATOM      4  C           0     137.901 130.890 145.883  0.00  0.00     0.672 C 
ATOM      5  N           0     136.819 130.202 146.403  0.00  0.00    -0.218 N 
ATOM      6  C           0     135.658 130.969 146.843  0.00  0.00     0.151 C 
ATOM      7  C           0     135.167 131.942 145.788  0.00  0.00     0.180 C 
ATOM      8  N           0     134.416 131.199 144.754  0.00  0.00    -0.216 N 
ATOM      9  C           0     134.742 131.743 143.535  0.00  0.00     0.670 C 
ATOM     10  N           0     134.027 131.601 142.455  0.00  0.00    -0.235 N 
ATOM     11  H           0     133.206 131.084 142.482  0.00  0.00     0.174 HD
ATOM     12  H           0     134.315 132.012 141.625  0.00  0.00     0.174 HD
ATOM     13  C           0     136.278 132.629 145.011  0.00  0.00     0.217 C 
ATOM     14  N           0     135.914 132.454 143.595  0.00  0.00    -0.191 N 
ATOM     15  N           0     137.610 132.086 145.280  0.00  0.00    -0.183 N 
ATOM     16  C           0     138.554 133.122 144.821  0.00  0.00     0.150 C 
ATOM     17  C           0     137.882 134.457 145.223  0.00  0.00     0.093 C 
ATOM     18  C           0     136.372 134.128 145.346  0.00  0.00     0.209 C 
ATOM     19  H           0     136.832 129.235 146.473  0.00  0.00     0.178 HD
ATOM     20  H           0     133.804 130.462 144.907  0.00  0.00     0.178 HD
ATOM     21  H           0     136.416 132.787 142.835  0.00  0.00     0.180 HD
ENDROOT
BRANCH   6  22
ATOM     22  C           0     136.033 131.754 148.101  0.00  0.00     0.208 C 
BRANCH  22  23
ATOM     23  O           0     134.841 132.358 148.668  0.00  0.00    -0.302 OA
BRANCH  23  24
ATOM     24  C           0     133.993 131.615 149.404  0.00  0.00     0.358 C 
ATOM     25  N           0     134.469 130.632 150.193  0.00  0.00    -0.346 N 
ATOM     26  H           0     135.423 130.460 150.232  0.00  0.00     0.161 HD
ATOM     27  H           0     133.858 130.096 150.722  0.00  0.00     0.161 HD
ATOM     28  O           0     132.798 131.830 149.355  0.00  0.00    -0.239 OA
ENDBRANCH  23  24
ENDBRANCH  22  23
ENDBRANCH   6  22
BRANCH  18  29
ATOM     29  O           0     135.617 134.900 144.411  0.00  0.00    -0.362 OA
ATOM     30  H           0     134.719 134.539 144.411  0.00  0.00     0.213 HD
ENDBRANCH  18  29
BRANCH  18  31
ATOM     31  O           0     135.916 134.369 146.678  0.00  0.00    -0.362 OA
ATOM     32  H           0     136.289 133.669 147.232  0.00  0.00     0.213 HD
ENDBRANCH  18  31
TORSDOF 5
ENDMDL
MODEL 9
REMARK VINA RESULT:      -6.6      2.945      4.820
REMARK  5 active torsions:
REMARK  status: ('A' for Active; 'I' for Inactive)
REMARK    1  A    between atoms: C_6  and  C_7 
REMARK    2  A    between atoms: C_7  and  O_8 
REMARK    3  A    between atoms: O_8  and  C_9 
REMARK       I    between atoms: C_9  and  N_10 
REMARK    4  A    between atoms: C_23  and  O_24 
REMARK    5  A    between atoms: C_23  and  O_25 
ROOT
ATOM      1  N           0     139.619 130.639 146.241  0.00  0.00    -0.235 N 
ATOM      2  H           0     140.388 130.751 145.661  0.00  0.00     0.174 HD
ATOM      3  H           0     139.613 129.934 146.908  0.00  0.00     0.174 HD
ATOM      4  C           0     138.595 131.438 146.128  0.00  0.00     0.672 C 
ATOM      5  N           0     138.558 132.460 145.196  0.00  0.00    -0.218 N 
ATOM      6  C           0     137.257 132.886 144.687  0.00  0.00     0.151 C 
ATOM      7  C           0     136.267 133.187 145.795  0.00  0.00     0.180 C 
ATOM      8  N           0     136.584 134.504 146.385  0.00  0.00    -0.216 N 
ATOM      9  C           0     136.403 134.405 147.743  0.00  0.00     0.670 C 
ATOM     10  N           0     136.236 135.425 148.537  0.00  0.00    -0.235 N 
ATOM     11  H           0     136.235 136.325 148.176  0.00  0.00     0.174 HD
ATOM     12  H           0     136.112 135.283 149.489  0.00  0.00     0.174 HD
ATOM     13  C           0     136.343 132.230 146.974  0.00  0.00     0.217 C 
ATOM     14  N           0     136.419 133.097 148.161  0.00  0.00    -0.191 N 
ATOM     15  N           0     137.483 131.315 146.919  0.00  0.00    -0.183 N 
ATOM     16  C           0     137.149 130.219 147.847  0.00  0.00     0.150 C 
ATOM     17  C           0     135.631 129.992 147.641  0.00  0.00     0.093 C 
ATOM     18  C           0     135.099 131.329 147.064  0.00  0.00     0.209 C 
ATOM     19  H           0     139.374 132.884 144.889  0.00  0.00     0.178 HD
ATOM     20  H           0     136.869 135.296 145.902  0.00  0.00     0.178 HD
ATOM     21  H           0     136.468 132.796 149.082  0.00  0.00     0.180 HD
ENDROOT
BRANCH   6  22
ATOM     22  C           0     136.686 131.775 143.804  0.00  0.00     0.208 C 
BRANCH  22  23
ATOM     23  O           0     135.382 132.174 143.305  0.00  0.00    -0.302 OA
BRANCH  23  24
ATOM     24  C           0     135.284 133.150 142.382  0.00  0.00     0.358 C 
ATOM     25  N           0     135.902 133.017 141.192  0.00  0.00    -0.346 N 
ATOM     26  H           0     136.419 132.218 141.000  0.00  0.00     0.161 HD
ATOM     27  H           0     135.832 133.720 140.527  0.00  0.00     0.161 HD
ATOM     28  O           0     134.637 134.150 142.622  0.00  0.00    -0.239 OA
ENDBRANCH  23  24
ENDBRANCH  22  23
ENDBRANCH   6  22
BRANCH  18  29
ATOM     29  O           0     134.127 131.898 147.942  0.00  0.00    -0.362 OA
ATOM     30  H           0     134.597 132.525 148.510  0.00  0.00     0.213 HD
ENDBRANCH  18  29
BRANCH  18  31
ATOM     31  O           0     134.540 131.123 145.765  0.00  0.00    -0.362 OA
ATOM     32  H           0     133.825 131.767 145.664  0.00  0.00     0.213 HD
ENDBRANCH  18  31
TORSDOF 5
ENDMDL
