# created with PyMOL 2.3.4
@<TRIPOS>MOLECULE
ligand_out_0001
32 35 1                 
SMALL
USER_CHARGES
@<TRIPOS>ATOM
1	   N	133.407	134.881	140.145	N.3	1	UNK0	-0.235	
2	   N	133.225	132.984	141.518	N.pl3	1	UNK0	-0.200	
3	   N	134.278	134.937	142.330	N.3	1	UNK0	-0.211	
4	   C	133.626	134.290	141.286	C.3	1	UNK0	0.670	
5	   C	134.156	132.095	142.235	C.2	1	UNK0	0.244	
6	   C	134.640	132.819	143.495	C.3	1	UNK0	0.101	
7	   C	135.255	134.163	143.086	C.3	1	UNK0	0.119	
8	   C	136.484	133.874	142.214	C.2	1	UNK0	0.243	
9	   C	135.697	131.984	144.216	C.2	1	UNK0	0.177	
10	   C	137.439	133.033	143.069	C.3	1	UNK0	0.311	
11	   C	136.124	132.727	145.490	C.3	1	UNK0	0.134	
12	   C	136.765	134.058	145.053	C.2	1	UNK0	0.198	
13	   C	135.723	134.908	144.336	C.2	1	UNK0	0.182	
14	   C	137.134	131.883	146.269	C.2	1	UNK0	0.207	
15	   O	136.843	131.788	143.395	O.2	1	UNK0	-0.322	
16	   O	137.867	133.775	144.197	O.2	1	UNK0	-0.319	
17	   O	134.979	132.990	146.304	O.2	1	UNK0	-0.382	
18	   O	137.059	130.526	145.830	O.2	1	UNK0	-0.398	
19	   O	136.301	136.159	143.960	O.2	1	UNK0	-0.390	
20	   O	133.483	130.888	142.602	O.2	1	UNK0	-0.376	
21	   O	138.602	132.765	142.284	O.2	1	UNK0	-0.341	
22	   O	136.096	133.145	141.047	O.2	1	UNK0	-0.385	
23	   H	132.953	134.405	139.432	 H	1	UNK0	0.174	
24	   H	133.695	135.797	140.010	 H	1	UNK0	0.174	
25	   H	132.359	132.666	141.220	 H	1	UNK0	0.180	
26	   H	134.085	135.862	142.547	 H	1	UNK0	0.178	
27	   H	134.466	132.171	146.337	 H	1	UNK0	0.210	
28	   H	137.869	130.348	145.333	 H	1	UNK0	0.209	
29	   H	135.567	136.761	143.774	 H	1	UNK0	0.210	
30	   H	133.323	130.936	143.555	 H	1	UNK0	0.212	
31	   H	138.294	132.536	141.397	 H	1	UNK0	0.215	
32	   H	136.277	132.213	141.227	 H	1	UNK0	0.210	
@<TRIPOS>BOND
1 1 4 1
2 1 23 1
3 1 24 1
4 2 5 1
5 2 25 1
6 3 26 1
7 2 4 1
8 3 4 1
9 5 6 1
10 5 20 2
11 6 7 1
12 6 9 1
13 3 7 1
14 7 8 1
15 7 13 1
16 8 10 1
17 8 22 2
18 9 11 1
19 9 15 2
20 10 16 2
21 10 21 2
22 11 12 1
23 11 14 1
24 11 17 2
25 12 13 1
26 13 19 2
27 14 18 2
28 10 15 2
29 12 16 2
30 17 27 1
31 18 28 1
32 19 29 1
33 20 30 1
34 21 31 1
35 22 32 1
@<TRIPOS>SUBSTRUCTURE
1	UNK0	1	GROUP	1 ****	UNK
