MODEL 1
REMARK VINA RESULT:      -7.9      0.000      0.000
REMARK  7 active torsions:
REMARK  status: ('A' for Active; 'I' for Inactive)
REMARK    1  A    between atoms: C_6  and  O_7 
REMARK    2  A    between atoms: C_10  and  O_11 
REMARK    3  A    between atoms: C_15  and  O_16 
REMARK    4  A    between atoms: C_18  and  O_19 
REMARK    5  A    between atoms: C_18  and  C_20 
REMARK    6  A    between atoms: C_20  and  O_21 
REMARK    7  A    between atoms: C_23  and  O_24 
ROOT
ATOM      1  N           0     133.407 134.881 140.145  0.00  0.00    -0.235 N 
ATOM      2  H           0     132.953 134.405 139.432  0.00  0.00     0.174 HD
ATOM      3  H           0     133.695 135.797 140.010  0.00  0.00     0.174 HD
ATOM      4  C           0     133.626 134.290 141.286  0.00  0.00     0.670 C 
ATOM      5  N           0     133.225 132.984 141.518  0.00  0.00    -0.200 N 
ATOM      6  C           0     134.156 132.095 142.235  0.00  0.00     0.244 C 
ATOM      7  C           0     134.640 132.819 143.495  0.00  0.00     0.101 C 
ATOM      8  C           0     135.255 134.163 143.086  0.00  0.00     0.119 C 
ATOM      9  C           0     136.484 133.874 142.214  0.00  0.00     0.243 C 
ATOM     10  N           0     134.278 134.937 142.330  0.00  0.00    -0.211 N 
ATOM     11  C           0     135.697 131.984 144.216  0.00  0.00     0.177 C 
ATOM     12  O           0     136.843 131.788 143.395  0.00  0.00    -0.322 OA
ATOM     13  C           0     137.439 133.033 143.069  0.00  0.00     0.311 C 
ATOM     14  O           0     137.867 133.775 144.197  0.00  0.00    -0.319 OA
ATOM     15  C           0     136.124 132.727 145.490  0.00  0.00     0.134 C 
ATOM     16  C           0     136.765 134.058 145.053  0.00  0.00     0.198 C 
ATOM     17  C           0     135.723 134.908 144.336  0.00  0.00     0.182 C 
ATOM     18  H           0     132.359 132.666 141.220  0.00  0.00     0.180 HD
ATOM     19  H           0     134.085 135.862 142.547  0.00  0.00     0.178 HD
ENDROOT
BRANCH  15  20
ATOM     20  O           0     134.979 132.990 146.304  0.00  0.00    -0.382 OA
ATOM     21  H           0     134.466 132.171 146.337  0.00  0.00     0.210 HD
ENDBRANCH  15  20
BRANCH  15  22
ATOM     22  C           0     137.134 131.883 146.269  0.00  0.00     0.207 C 
BRANCH  22  23
ATOM     23  O           0     137.059 130.526 145.830  0.00  0.00    -0.398 OA
ATOM     24  H           0     137.869 130.348 145.333  0.00  0.00     0.209 HD
ENDBRANCH  22  23
ENDBRANCH  15  22
BRANCH  17  25
ATOM     25  O           0     136.301 136.159 143.960  0.00  0.00    -0.390 OA
ATOM     26  H           0     135.567 136.761 143.774  0.00  0.00     0.210 HD
ENDBRANCH  17  25
BRANCH   6  27
ATOM     27  O           0     133.483 130.888 142.602  0.00  0.00    -0.376 OA
ATOM     28  H           0     133.323 130.936 143.555  0.00  0.00     0.212 HD
ENDBRANCH   6  27
BRANCH  13  29
ATOM     29  O           0     138.602 132.765 142.284  0.00  0.00    -0.341 OA
ATOM     30  H           0     138.294 132.536 141.397  0.00  0.00     0.215 HD
ENDBRANCH  13  29
BRANCH   9  31
ATOM     31  O           0     136.096 133.145 141.047  0.00  0.00    -0.385 OA
ATOM     32  H           0     136.277 132.213 141.227  0.00  0.00     0.210 HD
ENDBRANCH   9  31
TORSDOF 7
ENDMDL
MODEL 2
REMARK VINA RESULT:      -7.2      1.737      2.346
REMARK  7 active torsions:
REMARK  status: ('A' for Active; 'I' for Inactive)
REMARK    1  A    between atoms: C_6  and  O_7 
REMARK    2  A    between atoms: C_10  and  O_11 
REMARK    3  A    between atoms: C_15  and  O_16 
REMARK    4  A    between atoms: C_18  and  O_19 
REMARK    5  A    between atoms: C_18  and  C_20 
REMARK    6  A    between atoms: C_20  and  O_21 
REMARK    7  A    between atoms: C_23  and  O_24 
ROOT
ATOM      1  N           0     135.018 136.271 142.884  0.00  0.00    -0.235 N 
ATOM      2  H           0     134.772 136.337 141.948  0.00  0.00     0.174 HD
ATOM      3  H           0     135.409 137.034 143.339  0.00  0.00     0.174 HD
ATOM      4  C           0     134.820 135.157 143.532  0.00  0.00     0.670 C 
ATOM      5  N           0     134.261 134.048 142.918  0.00  0.00    -0.200 N 
ATOM      6  C           0     134.845 132.729 143.216  0.00  0.00     0.244 C 
ATOM      7  C           0     134.969 132.588 144.736  0.00  0.00     0.101 C 
ATOM      8  C           0     135.790 133.767 145.275  0.00  0.00     0.119 C 
ATOM      9  C           0     137.202 133.670 144.681  0.00  0.00     0.243 C 
ATOM     10  N           0     135.164 135.021 144.872  0.00  0.00    -0.211 N 
ATOM     11  C           0     135.675 131.282 145.094  0.00  0.00     0.177 C 
ATOM     12  O           0     137.000 131.256 144.576  0.00  0.00    -0.322 OA
ATOM     13  C           0     137.768 132.316 145.122  0.00  0.00     0.311 C 
ATOM     14  O           0     137.883 132.270 146.533  0.00  0.00    -0.319 OA
ATOM     15  C           0     135.742 131.165 146.624  0.00  0.00     0.134 C 
ATOM     16  C           0     136.596 132.340 147.139  0.00  0.00     0.198 C 
ATOM     17  C           0     135.903 133.654 146.795  0.00  0.00     0.182 C 
ATOM     18  H           0     133.508 134.137 142.313  0.00  0.00     0.180 HD
ATOM     19  H           0     134.990 135.730 145.510  0.00  0.00     0.178 HD
ENDROOT
BRANCH  15  20
ATOM     20  O           0     134.427 131.249 147.175  0.00  0.00    -0.382 OA
ATOM     21  H           0     134.128 130.342 147.326  0.00  0.00     0.210 HD
ENDBRANCH  15  20
BRANCH  15  22
ATOM     22  C           0     136.386 129.833 147.015  0.00  0.00     0.207 C 
BRANCH  22  23
ATOM     23  O           0     135.810 128.781 146.238  0.00  0.00    -0.398 OA
ATOM     24  H           0     135.422 129.193 145.454  0.00  0.00     0.209 HD
ENDBRANCH  22  23
ENDBRANCH  15  22
BRANCH  17  25
ATOM     25  O           0     136.671 134.747 147.301  0.00  0.00    -0.390 OA
ATOM     26  H           0     137.011 135.228 146.533  0.00  0.00     0.210 HD
ENDBRANCH  17  25
BRANCH   6  27
ATOM     27  O           0     133.994 131.699 142.706  0.00  0.00    -0.376 OA
ATOM     28  H           0     134.571 131.032 142.307  0.00  0.00     0.212 HD
ENDBRANCH   6  27
BRANCH  13  29
ATOM     29  O           0     139.093 132.207 144.596  0.00  0.00    -0.341 OA
ATOM     30  H           0     139.035 132.406 143.652  0.00  0.00     0.215 HD
ENDBRANCH  13  29
BRANCH   9  31
ATOM     31  O           0     137.139 133.736 143.255  0.00  0.00    -0.385 OA
ATOM     32  H           0     137.844 133.168 142.917  0.00  0.00     0.210 HD
ENDBRANCH   9  31
TORSDOF 7
ENDMDL
MODEL 3
REMARK VINA RESULT:      -7.1      2.182      4.013
REMARK  7 active torsions:
REMARK  status: ('A' for Active; 'I' for Inactive)
REMARK    1  A    between atoms: C_6  and  O_7 
REMARK    2  A    between atoms: C_10  and  O_11 
REMARK    3  A    between atoms: C_15  and  O_16 
REMARK    4  A    between atoms: C_18  and  O_19 
REMARK    5  A    between atoms: C_18  and  C_20 
REMARK    6  A    between atoms: C_20  and  O_21 
REMARK    7  A    between atoms: C_23  and  O_24 
ROOT
ATOM      1  N           0     133.581 131.800 142.351  0.00  0.00    -0.235 N 
ATOM      2  H           0     133.536 132.268 141.503  0.00  0.00     0.174 HD
ATOM      3  H           0     132.770 131.473 142.770  0.00  0.00     0.174 HD
ATOM      4  C           0     134.735 131.607 142.927  0.00  0.00     0.670 C 
ATOM      5  N           0     135.916 132.054 142.357  0.00  0.00    -0.200 N 
ATOM      6  C           0     136.918 132.671 143.244  0.00  0.00     0.244 C 
ATOM      7  C           0     137.131 131.747 144.447  0.00  0.00     0.101 C 
ATOM      8  C           0     135.776 131.493 145.121  0.00  0.00     0.119 C 
ATOM      9  C           0     135.254 132.836 145.651  0.00  0.00     0.243 C 
ATOM     10  N           0     134.841 130.946 144.145  0.00  0.00    -0.211 N 
ATOM     11  C           0     138.078 132.395 145.456  0.00  0.00     0.177 C 
ATOM     12  O           0     137.531 133.606 145.967  0.00  0.00    -0.322 OA
ATOM     13  C           0     136.307 133.354 146.638  0.00  0.00     0.311 C 
ATOM     14  O           0     136.428 132.467 147.735  0.00  0.00    -0.319 OA
ATOM     15  C           0     138.292 131.420 146.623  0.00  0.00     0.134 C 
ATOM     16  C           0     136.926 131.205 147.301  0.00  0.00     0.198 C 
ATOM     17  C           0     135.968 130.553 146.310  0.00  0.00     0.182 C 
ATOM     18  H           0     136.080 131.963 141.406  0.00  0.00     0.180 HD
ATOM     19  H           0     134.318 130.151 144.334  0.00  0.00     0.178 HD
ENDROOT
BRANCH  15  20
ATOM     20  O           0     138.785 130.173 146.128  0.00  0.00    -0.382 OA
ATOM     21  H           0     139.450 130.381 145.458  0.00  0.00     0.210 HD
ENDBRANCH  15  20
BRANCH  15  22
ATOM     22  C           0     139.290 132.014 147.619  0.00  0.00     0.207 C 
BRANCH  22  23
ATOM     23  O           0     140.219 132.847 146.921  0.00  0.00    -0.398 OA
ATOM     24  H           0     139.754 133.199 146.150  0.00  0.00     0.209 HD
ENDBRANCH  22  23
ENDBRANCH  15  22
BRANCH  17  25
ATOM     25  O           0     134.710 130.318 146.944  0.00  0.00    -0.390 OA
ATOM     26  H           0     134.540 131.078 147.518  0.00  0.00     0.210 HD
ENDBRANCH  17  25
BRANCH   6  27
ATOM     27  O           0     138.151 132.834 142.539  0.00  0.00    -0.376 OA
ATOM     28  H           0     138.392 131.963 142.192  0.00  0.00     0.212 HD
ENDBRANCH   6  27
BRANCH  13  29
ATOM     29  O           0     135.836 134.598 147.161  0.00  0.00    -0.341 OA
ATOM     30  H           0     135.269 134.989 146.483  0.00  0.00     0.215 HD
ENDBRANCH  13  29
BRANCH   9  31
ATOM     31  O           0     135.093 133.760 144.573  0.00  0.00    -0.385 OA
ATOM     32  H           0     135.001 134.637 144.967  0.00  0.00     0.210 HD
ENDBRANCH   9  31
TORSDOF 7
ENDMDL
MODEL 4
REMARK VINA RESULT:      -6.8      2.925      4.790
REMARK  7 active torsions:
REMARK  status: ('A' for Active; 'I' for Inactive)
REMARK    1  A    between atoms: C_6  and  O_7 
REMARK    2  A    between atoms: C_10  and  O_11 
REMARK    3  A    between atoms: C_15  and  O_16 
REMARK    4  A    between atoms: C_18  and  O_19 
REMARK    5  A    between atoms: C_18  and  C_20 
REMARK    6  A    between atoms: C_20  and  O_21 
REMARK    7  A    between atoms: C_23  and  O_24 
ROOT
ATOM      1  N           0     138.633 133.128 148.342  0.00  0.00    -0.235 N 
ATOM      2  H           0     138.344 133.210 149.264  0.00  0.00     0.174 HD
ATOM      3  H           0     139.502 133.465 148.074  0.00  0.00     0.174 HD
ATOM      4  C           0     137.854 132.562 147.463  0.00  0.00     0.670 C 
ATOM      5  N           0     136.608 132.064 147.808  0.00  0.00    -0.200 N 
ATOM      6  C           0     135.488 132.309 146.883  0.00  0.00     0.244 C 
ATOM      7  C           0     135.934 131.915 145.472  0.00  0.00     0.101 C 
ATOM      8  C           0     137.210 132.691 145.122  0.00  0.00     0.119 C 
ATOM      9  C           0     136.863 134.186 145.100  0.00  0.00     0.243 C 
ATOM     10  N           0     138.230 132.431 146.131  0.00  0.00    -0.211 N 
ATOM     11  C           0     134.846 132.256 144.454  0.00  0.00     0.177 C 
ATOM     12  O           0     134.595 133.657 144.423  0.00  0.00    -0.322 OA
ATOM     13  C           0     135.765 134.363 144.044  0.00  0.00     0.311 C 
ATOM     14  O           0     136.257 134.009 142.764  0.00  0.00    -0.319 OA
ATOM     15  C           0     135.319 131.809 143.064  0.00  0.00     0.134 C 
ATOM     16  C           0     136.581 132.622 142.722  0.00  0.00     0.198 C 
ATOM     17  C           0     137.681 132.290 143.724  0.00  0.00     0.182 C 
ATOM     18  H           0     136.477 131.570 148.632  0.00  0.00     0.180 HD
ATOM     19  H           0     139.132 132.173 145.886  0.00  0.00     0.178 HD
ENDROOT
BRANCH  15  20
ATOM     20  O           0     135.635 130.416 143.084  0.00  0.00    -0.382 OA
ATOM     21  H           0     135.134 130.004 142.367  0.00  0.00     0.210 HD
ENDBRANCH  15  20
BRANCH  15  22
ATOM     22  C           0     134.221 132.077 142.032  0.00  0.00     0.207 C 
BRANCH  22  23
ATOM     23  O           0     133.150 131.152 142.226  0.00  0.00    -0.398 OA
ATOM     24  H           0     132.850 130.883 141.347  0.00  0.00     0.209 HD
ENDBRANCH  22  23
ENDBRANCH  15  22
BRANCH  17  25
ATOM     25  O           0     138.867 133.014 143.392  0.00  0.00    -0.390 OA
ATOM     26  H           0     139.539 132.760 144.040  0.00  0.00     0.210 HD
ENDBRANCH  17  25
BRANCH   6  27
ATOM     27  O           0     134.361 131.519 147.270  0.00  0.00    -0.376 OA
ATOM     28  H           0     133.655 131.711 146.636  0.00  0.00     0.212 HD
ENDBRANCH   6  27
BRANCH  13  29
ATOM     29  O           0     135.436 135.752 143.990  0.00  0.00    -0.341 OA
ATOM     30  H           0     135.743 136.144 144.818  0.00  0.00     0.215 HD
ENDBRANCH  13  29
BRANCH   9  31
ATOM     31  O           0     136.382 134.596 146.382  0.00  0.00    -0.385 OA
ATOM     32  H           0     135.768 135.326 146.230  0.00  0.00     0.210 HD
ENDBRANCH   9  31
TORSDOF 7
ENDMDL
MODEL 5
REMARK VINA RESULT:      -6.7      3.209      5.311
REMARK  7 active torsions:
REMARK  status: ('A' for Active; 'I' for Inactive)
REMARK    1  A    between atoms: C_6  and  O_7 
REMARK    2  A    between atoms: C_10  and  O_11 
REMARK    3  A    between atoms: C_15  and  O_16 
REMARK    4  A    between atoms: C_18  and  O_19 
REMARK    5  A    between atoms: C_18  and  C_20 
REMARK    6  A    between atoms: C_20  and  O_21 
REMARK    7  A    between atoms: C_23  and  O_24 
ROOT
ATOM      1  N           0     140.080 131.689 148.231  0.00  0.00    -0.235 N 
ATOM      2  H           0     140.947 131.264 148.130  0.00  0.00     0.174 HD
ATOM      3  H           0     139.596 131.611 149.068  0.00  0.00     0.174 HD
ATOM      4  C           0     139.568 132.367 147.243  0.00  0.00     0.670 C 
ATOM      5  N           0     140.232 132.506 146.034  0.00  0.00    -0.200 N 
ATOM      6  C           0     139.442 132.387 144.797  0.00  0.00     0.244 C 
ATOM      7  C           0     138.209 133.287 144.924  0.00  0.00     0.101 C 
ATOM      8  C           0     137.441 132.897 146.193  0.00  0.00     0.119 C 
ATOM      9  C           0     136.947 131.454 146.020  0.00  0.00     0.243 C 
ATOM     10  N           0     138.328 132.985 147.347  0.00  0.00    -0.211 N 
ATOM     11  C           0     137.295 133.114 143.712  0.00  0.00     0.177 C 
ATOM     12  O           0     136.813 131.779 143.621  0.00  0.00    -0.322 OA
ATOM     13  C           0     136.056 131.444 144.773  0.00  0.00     0.311 C 
ATOM     14  O           0     134.925 132.273 144.974  0.00  0.00    -0.319 OA
ATOM     15  C           0     136.097 134.062 143.863  0.00  0.00     0.134 C 
ATOM     16  C           0     135.324 133.632 145.124  0.00  0.00     0.198 C 
ATOM     17  C           0     136.220 133.803 146.346  0.00  0.00     0.182 C 
ATOM     18  H           0     141.186 132.677 146.004  0.00  0.00     0.180 HD
ATOM     19  H           0     138.067 133.459 148.152  0.00  0.00     0.178 HD
ENDROOT
BRANCH  15  20
ATOM     20  O           0     136.558 135.406 144.017  0.00  0.00    -0.382 OA
ATOM     21  H           0     136.292 135.694 144.900  0.00  0.00     0.210 HD
ENDBRANCH  15  20
BRANCH  15  22
ATOM     22  C           0     135.196 133.960 142.630  0.00  0.00     0.207 C 
BRANCH  22  23
ATOM     23  O           0     135.960 133.480 141.522  0.00  0.00    -0.398 OA
ATOM     24  H           0     136.733 134.055 141.445  0.00  0.00     0.209 HD
ENDBRANCH  22  23
ENDBRANCH  15  22
BRANCH  17  25
ATOM     25  O           0     135.498 133.439 147.524  0.00  0.00    -0.390 OA
ATOM     26  H           0     135.085 132.583 147.344  0.00  0.00     0.210 HD
ENDBRANCH  17  25
BRANCH   6  27
ATOM     27  O           0     140.230 132.804 143.680  0.00  0.00    -0.376 OA
ATOM     28  H           0     141.020 133.232 144.040  0.00  0.00     0.212 HD
ENDBRANCH   6  27
BRANCH  13  29
ATOM     29  O           0     135.567 130.113 144.599  0.00  0.00    -0.341 OA
ATOM     30  H           0     136.170 129.672 143.985  0.00  0.00     0.215 HD
ENDBRANCH  13  29
BRANCH   9  31
ATOM     31  O           0     138.059 130.574 145.837  0.00  0.00    -0.385 OA
ATOM     32  H           0     138.668 130.737 146.570  0.00  0.00     0.210 HD
ENDBRANCH   9  31
TORSDOF 7
ENDMDL
MODEL 6
REMARK VINA RESULT:      -6.6      2.292      3.533
REMARK  7 active torsions:
REMARK  status: ('A' for Active; 'I' for Inactive)
REMARK    1  A    between atoms: C_6  and  O_7 
REMARK    2  A    between atoms: C_10  and  O_11 
REMARK    3  A    between atoms: C_15  and  O_16 
REMARK    4  A    between atoms: C_18  and  O_19 
REMARK    5  A    between atoms: C_18  and  C_20 
REMARK    6  A    between atoms: C_20  and  O_21 
REMARK    7  A    between atoms: C_23  and  O_24 
ROOT
ATOM      1  N           0     136.821 134.625 142.875  0.00  0.00    -0.235 N 
ATOM      2  H           0     136.692 134.473 141.925  0.00  0.00     0.174 HD
ATOM      3  H           0     137.457 135.291 143.178  0.00  0.00     0.174 HD
ATOM      4  C           0     136.135 133.935 143.743  0.00  0.00     0.670 C 
ATOM      5  N           0     135.214 132.978 143.349  0.00  0.00    -0.200 N 
ATOM      6  C           0     135.179 131.708 144.093  0.00  0.00     0.244 C 
ATOM      7  C           0     135.125 132.027 145.590  0.00  0.00     0.101 C 
ATOM      8  C           0     136.317 132.925 145.947  0.00  0.00     0.119 C 
ATOM      9  C           0     137.602 132.127 145.688  0.00  0.00     0.243 C 
ATOM     10  N           0     136.295 134.120 145.112  0.00  0.00    -0.211 N 
ATOM     11  C           0     135.202 130.742 146.413  0.00  0.00     0.177 C 
ATOM     12  O           0     136.433 130.063 146.188  0.00  0.00    -0.322 OA
ATOM     13  C           0     137.527 130.878 146.574  0.00  0.00     0.311 C 
ATOM     14  O           0     137.510 131.250 147.940  0.00  0.00    -0.319 OA
ATOM     15  C           0     135.105 131.107 147.901  0.00  0.00     0.134 C 
ATOM     16  C           0     136.327 131.981 148.243  0.00  0.00     0.198 C 
ATOM     17  C           0     136.264 133.272 147.434  0.00  0.00     0.182 C 
ATOM     18  H           0     134.611 133.140 142.607  0.00  0.00     0.180 HD
ATOM     19  H           0     136.383 135.007 145.493  0.00  0.00     0.178 HD
ENDROOT
BRANCH  15  20
ATOM     20  O           0     133.905 131.844 148.142  0.00  0.00    -0.382 OA
ATOM     21  H           0     134.011 132.281 148.998  0.00  0.00     0.210 HD
ENDBRANCH  15  20
BRANCH  15  22
ATOM     22  C           0     135.112 129.833 148.749  0.00  0.00     0.207 C 
BRANCH  22  23
ATOM     23  O           0     134.580 128.750 147.984  0.00  0.00    -0.398 OA
ATOM     24  H           0     134.136 128.160 148.607  0.00  0.00     0.209 HD
ENDBRANCH  22  23
ENDBRANCH  15  22
BRANCH  17  25
ATOM     25  O           0     137.375 134.103 147.772  0.00  0.00    -0.390 OA
ATOM     26  H           0     137.963 134.109 147.004  0.00  0.00     0.210 HD
ENDBRANCH  17  25
BRANCH   6  27
ATOM     27  O           0     134.019 130.961 143.718  0.00  0.00    -0.376 OA
ATOM     28  H           0     134.107 130.087 144.125  0.00  0.00     0.212 HD
ENDBRANCH   6  27
BRANCH  13  29
ATOM     29  O           0     138.724 130.125 146.364  0.00  0.00    -0.341 OA
ATOM     30  H           0     139.088 129.931 147.238  0.00  0.00     0.215 HD
ENDBRANCH  13  29
BRANCH   9  31
ATOM     31  O           0     137.675 131.749 144.311  0.00  0.00    -0.385 OA
ATOM     32  H           0     137.995 130.837 144.287  0.00  0.00     0.210 HD
ENDBRANCH   9  31
TORSDOF 7
ENDMDL
MODEL 7
REMARK VINA RESULT:      -6.5      9.165     10.916
REMARK  7 active torsions:
REMARK  status: ('A' for Active; 'I' for Inactive)
REMARK    1  A    between atoms: C_6  and  O_7 
REMARK    2  A    between atoms: C_10  and  O_11 
REMARK    3  A    between atoms: C_15  and  O_16 
REMARK    4  A    between atoms: C_18  and  O_19 
REMARK    5  A    between atoms: C_18  and  C_20 
REMARK    6  A    between atoms: C_20  and  O_21 
REMARK    7  A    between atoms: C_23  and  O_24 
ROOT
ATOM      1  N           0     129.888 131.682 136.715  0.00  0.00    -0.235 N 
ATOM      2  H           0     129.642 130.759 136.545  0.00  0.00     0.174 HD
ATOM      3  H           0     129.404 132.199 137.377  0.00  0.00     0.174 HD
ATOM      4  C           0     130.873 132.225 136.057  0.00  0.00     0.670 C 
ATOM      5  N           0     131.592 131.516 135.107  0.00  0.00    -0.200 N 
ATOM      6  C           0     131.943 132.206 133.854  0.00  0.00     0.244 C 
ATOM      7  C           0     132.566 133.560 134.207  0.00  0.00     0.101 C 
ATOM      8  C           0     131.585 134.340 135.091  0.00  0.00     0.119 C 
ATOM      9  C           0     130.319 134.610 134.266  0.00  0.00     0.243 C 
ATOM     10  N           0     131.252 133.545 136.268  0.00  0.00    -0.211 N 
ATOM     11  C           0     132.845 134.365 132.939  0.00  0.00     0.177 C 
ATOM     12  O           0     131.641 134.645 132.234  0.00  0.00    -0.322 OA
ATOM     13  C           0     130.762 135.415 133.039  0.00  0.00     0.311 C 
ATOM     14  O           0     131.298 136.662 133.440  0.00  0.00    -0.319 OA
ATOM     15  C           0     133.503 135.694 133.337  0.00  0.00     0.134 C 
ATOM     16  C           0     132.489 136.471 134.197  0.00  0.00     0.198 C 
ATOM     17  C           0     132.202 135.685 135.472  0.00  0.00     0.182 C 
ATOM     18  H           0     131.856 130.597 135.263  0.00  0.00     0.180 HD
ATOM     19  H           0     131.298 133.919 137.161  0.00  0.00     0.178 HD
ENDROOT
BRANCH  15  20
ATOM     20  O           0     134.685 135.440 134.099  0.00  0.00    -0.382 OA
ATOM     21  H           0     134.694 136.081 134.823  0.00  0.00     0.210 HD
ENDBRANCH  15  20
BRANCH  15  22
ATOM     22  C           0     133.856 136.495 132.082  0.00  0.00     0.207 C 
BRANCH  22  23
ATOM     23  O           0     133.687 137.889 132.345  0.00  0.00    -0.398 OA
ATOM     24  H           0     134.278 138.109 133.078  0.00  0.00     0.209 HD
ENDBRANCH  22  23
ENDBRANCH  15  22
BRANCH  17  25
ATOM     25  O           0     131.289 136.416 136.291  0.00  0.00    -0.390 OA
ATOM     26  H           0     130.475 136.519 135.779  0.00  0.00     0.210 HD
ENDBRANCH  17  25
BRANCH   6  27
ATOM     27  O           0     132.885 131.420 133.119  0.00  0.00    -0.376 OA
ATOM     28  H           0     132.376 130.747 132.644  0.00  0.00     0.212 HD
ENDBRANCH   6  27
BRANCH  13  29
ATOM     29  O           0     129.597 135.696 132.261  0.00  0.00    -0.341 OA
ATOM     30  H           0     129.593 135.068 131.526  0.00  0.00     0.215 HD
ENDBRANCH  13  29
BRANCH   9  31
ATOM     31  O           0     129.727 133.375 133.858  0.00  0.00    -0.385 OA
ATOM     32  H           0     129.625 133.417 132.897  0.00  0.00     0.210 HD
ENDBRANCH   9  31
TORSDOF 7
ENDMDL
MODEL 8
REMARK VINA RESULT:      -6.5      9.327     10.938
REMARK  7 active torsions:
REMARK  status: ('A' for Active; 'I' for Inactive)
REMARK    1  A    between atoms: C_6  and  O_7 
REMARK    2  A    between atoms: C_10  and  O_11 
REMARK    3  A    between atoms: C_15  and  O_16 
REMARK    4  A    between atoms: C_18  and  O_19 
REMARK    5  A    between atoms: C_18  and  C_20 
REMARK    6  A    between atoms: C_20  and  O_21 
REMARK    7  A    between atoms: C_23  and  O_24 
ROOT
ATOM      1  N           0     129.917 137.738 133.125  0.00  0.00    -0.235 N 
ATOM      2  H           0     130.243 138.622 133.354  0.00  0.00     0.174 HD
ATOM      3  H           0     128.965 137.583 133.020  0.00  0.00     0.174 HD
ATOM      4  C           0     130.758 136.757 132.955  0.00  0.00     0.670 C 
ATOM      5  N           0     132.125 136.939 133.091  0.00  0.00    -0.200 N 
ATOM      6  C           0     132.892 135.897 133.796  0.00  0.00     0.244 C 
ATOM      7  C           0     132.512 134.536 133.205  0.00  0.00     0.101 C 
ATOM      8  C           0     130.991 134.362 133.302  0.00  0.00     0.119 C 
ATOM      9  C           0     130.612 134.345 134.789  0.00  0.00     0.243 C 
ATOM     10  N           0     130.329 135.475 132.631  0.00  0.00    -0.211 N 
ATOM     11  C           0     133.195 133.409 133.978  0.00  0.00     0.177 C 
ATOM     12  O           0     132.773 133.392 135.337  0.00  0.00    -0.322 OA
ATOM     13  C           0     131.374 133.174 135.420  0.00  0.00     0.311 C 
ATOM     14  O           0     130.951 131.950 134.847  0.00  0.00    -0.319 OA
ATOM     15  C           0     132.819 132.070 133.328  0.00  0.00     0.134 C 
ATOM     16  C           0     131.294 131.904 133.466  0.00  0.00     0.198 C 
ATOM     17  C           0     130.594 133.017 132.694  0.00  0.00     0.182 C 
ATOM     18  H           0     132.564 137.726 132.732  0.00  0.00     0.180 HD
ATOM     19  H           0     129.623 135.329 131.983  0.00  0.00     0.178 HD
ENDROOT
BRANCH  15  20
ATOM     20  O           0     133.178 132.085 131.946  0.00  0.00    -0.382 OA
ATOM     21  H           0     132.755 132.861 131.554  0.00  0.00     0.210 HD
ENDBRANCH  15  20
BRANCH  15  22
ATOM     22  C           0     133.542 130.926 134.041  0.00  0.00     0.207 C 
BRANCH  22  23
ATOM     23  O           0     134.750 131.418 134.625  0.00  0.00    -0.398 OA
ATOM     24  H           0     134.493 131.962 135.382  0.00  0.00     0.209 HD
ENDBRANCH  22  23
ENDBRANCH  15  22
BRANCH  17  25
ATOM     25  O           0     129.179 132.848 132.787  0.00  0.00    -0.390 OA
ATOM     26  H           0     129.025 132.102 133.383  0.00  0.00     0.210 HD
ENDBRANCH  17  25
BRANCH   6  27
ATOM     27  O           0     134.292 136.125 133.618  0.00  0.00    -0.376 OA
ATOM     28  H           0     134.415 137.084 133.580  0.00  0.00     0.212 HD
ENDBRANCH   6  27
BRANCH  13  29
ATOM     29  O           0     131.024 133.125 136.805  0.00  0.00    -0.341 OA
ATOM     30  H           0     131.841 132.955 137.293  0.00  0.00     0.215 HD
ENDBRANCH  13  29
BRANCH   9  31
ATOM     31  O           0     131.000 135.574 135.407  0.00  0.00    -0.385 OA
ATOM     32  H           0     130.953 135.435 136.362  0.00  0.00     0.210 HD
ENDBRANCH   9  31
TORSDOF 7
ENDMDL
MODEL 9
REMARK VINA RESULT:      -6.4      9.365     10.640
REMARK  7 active torsions:
REMARK  status: ('A' for Active; 'I' for Inactive)
REMARK    1  A    between atoms: C_6  and  O_7 
REMARK    2  A    between atoms: C_10  and  O_11 
REMARK    3  A    between atoms: C_15  and  O_16 
REMARK    4  A    between atoms: C_18  and  O_19 
REMARK    5  A    between atoms: C_18  and  C_20 
REMARK    6  A    between atoms: C_20  and  O_21 
REMARK    7  A    between atoms: C_23  and  O_24 
ROOT
ATOM      1  N           0     131.024 129.166 132.988  0.00  0.00    -0.235 N 
ATOM      2  H           0     130.830 128.414 133.569  0.00  0.00     0.174 HD
ATOM      3  H           0     131.416 129.016 132.113  0.00  0.00     0.174 HD
ATOM      4  C           0     130.753 130.379 133.381  0.00  0.00     0.670 C 
ATOM      5  N           0     130.187 130.633 134.621  0.00  0.00    -0.200 N 
ATOM      6  C           0     130.708 131.774 135.394  0.00  0.00     0.244 C 
ATOM      7  C           0     130.747 133.000 134.478  0.00  0.00     0.101 C 
ATOM      8  C           0     131.578 132.661 133.234  0.00  0.00     0.119 C 
ATOM      9  C           0     133.016 132.376 133.691  0.00  0.00     0.243 C 
ATOM     10  N           0     131.020 131.483 132.580  0.00  0.00    -0.211 N 
ATOM     11  C           0     131.386 134.185 135.200  0.00  0.00     0.177 C 
ATOM     12  O           0     132.735 133.902 135.554  0.00  0.00    -0.322 OA
ATOM     13  C           0     133.510 133.645 134.394  0.00  0.00     0.311 C 
ATOM     14  O           0     133.547 134.727 133.481  0.00  0.00    -0.319 OA
ATOM     15  C           0     131.368 135.399 134.259  0.00  0.00     0.134 C 
ATOM     16  C           0     132.233 135.047 133.035  0.00  0.00     0.198 C 
ATOM     17  C           0     131.607 133.869 132.298  0.00  0.00     0.182 C 
ATOM     18  H           0     129.472 130.078 134.967  0.00  0.00     0.180 HD
ATOM     19  H           0     130.837 131.470 131.628  0.00  0.00     0.178 HD
ENDROOT
BRANCH  15  20
ATOM     20  O           0     130.029 135.668 133.841  0.00  0.00    -0.382 OA
ATOM     21  H           0     129.744 134.911 133.310  0.00  0.00     0.210 HD
ENDBRANCH  15  20
BRANCH  15  22
ATOM     22  C           0     131.942 136.621 134.979  0.00  0.00     0.207 C 
BRANCH  22  23
ATOM     23  O           0     131.622 136.547 136.370  0.00  0.00    -0.398 OA
ATOM     24  H           0     131.604 137.456 136.701  0.00  0.00     0.209 HD
ENDBRANCH  22  23
ENDBRANCH  15  22
BRANCH  17  25
ATOM     25  O           0     132.385 133.559 131.140  0.00  0.00    -0.390 OA
ATOM     26  H           0     132.244 132.621 130.952  0.00  0.00     0.210 HD
ENDBRANCH  17  25
BRANCH   6  27
ATOM     27  O           0     129.850 132.032 136.508  0.00  0.00    -0.376 OA
ATOM     28  H           0     129.192 131.322 136.524  0.00  0.00     0.212 HD
ENDBRANCH   6  27
BRANCH  13  29
ATOM     29  O           0     134.856 133.412 134.815  0.00  0.00    -0.341 OA
ATOM     30  H           0     134.823 133.220 135.761  0.00  0.00     0.215 HD
ENDBRANCH  13  29
BRANCH   9  31
ATOM     31  O           0     133.031 131.272 134.599  0.00  0.00    -0.385 OA
ATOM     32  H           0     132.109 131.049 134.784  0.00  0.00     0.210 HD
ENDBRANCH   9  31
TORSDOF 7
ENDMDL
