MODEL 1
REMARK VINA RESULT:      -7.9      0.000      0.000
REMARK  6 active torsions:
REMARK  status: ('A' for Active; 'I' for Inactive)
REMARK    1  A    between atoms: C_6  and  C_7 
REMARK    2  A    between atoms: C_7  and  O_8 
REMARK    3  A    between atoms: O_8  and  C_9 
REMARK    4  A    between atoms: C_9  and  C_10 
REMARK    5  A    between atoms: C_28  and  O_29 
REMARK    6  A    between atoms: C_28  and  O_30 
ROOT
ATOM      1  N           0     135.162 132.843 149.688  0.00  0.00    -0.235 N 
ATOM      2  H           0     134.652 133.658 149.561  0.00  0.00     0.174 HD
ATOM      3  H           0     135.583 132.662 150.543  0.00  0.00     0.174 HD
ATOM      4  C           0     135.280 131.989 148.710  0.00  0.00     0.672 C 
ATOM      5  N           0     134.694 132.201 147.473  0.00  0.00    -0.218 N 
ATOM      6  C           0     135.326 131.608 146.299  0.00  0.00     0.151 C 
ATOM      7  C           0     135.604 130.126 146.470  0.00  0.00     0.180 C 
ATOM      8  N           0     134.343 129.372 146.303  0.00  0.00    -0.216 N 
ATOM      9  C           0     134.338 128.362 147.234  0.00  0.00     0.670 C 
ATOM     10  N           0     133.587 127.300 147.157  0.00  0.00    -0.235 N 
ATOM     11  H           0     132.984 127.186 146.405  0.00  0.00     0.174 HD
ATOM     12  H           0     133.632 126.623 147.849  0.00  0.00     0.174 HD
ATOM     13  C           0     136.079 129.739 147.862  0.00  0.00     0.217 C 
ATOM     14  N           0     135.221 128.611 148.255  0.00  0.00    -0.191 N 
ATOM     15  N           0     135.994 130.827 148.838  0.00  0.00    -0.183 N 
ATOM     16  C           0     136.882 130.427 149.945  0.00  0.00     0.150 C 
ATOM     17  C           0     138.089 129.759 149.246  0.00  0.00     0.093 C 
ATOM     18  C           0     137.553 129.302 147.866  0.00  0.00     0.209 C 
ATOM     19  H           0     133.885 132.729 147.390  0.00  0.00     0.178 HD
ATOM     20  H           0     133.647 129.557 145.654  0.00  0.00     0.178 HD
ATOM     21  H           0     135.271 128.123 149.092  0.00  0.00     0.180 HD
ENDROOT
BRANCH   6  22
ATOM     22  C           0     136.649 132.328 146.032  0.00  0.00     0.207 C 
BRANCH  22  23
ATOM     23  O           0     137.216 131.852 144.782  0.00  0.00    -0.315 OA
BRANCH  23  24
ATOM     24  C           0     137.339 132.690 143.736  0.00  0.00     0.293 C 
ATOM     25  O           0     138.436 132.915 143.263  0.00  0.00    -0.259 OA
BRANCH  24  26
ATOM     26  C           0     136.141 133.337 143.162  0.00  0.00     0.039 A 
ATOM     27  C           0     135.373 132.670 142.207  0.00  0.00     0.017 A 
ATOM     28  C           0     134.252 133.278 141.680  0.00  0.00     0.001 A 
ATOM     29  C           0     133.896 134.552 142.087  0.00  0.00     0.000 A 
ATOM     30  C           0     134.657 135.221 143.029  0.00  0.00     0.001 A 
ATOM     31  C           0     135.777 134.623 143.568  0.00  0.00     0.017 A 
ENDBRANCH  24  26
ENDBRANCH  23  24
ENDBRANCH  22  23
ENDBRANCH   6  22
BRANCH  18  32
ATOM     32  O           0     137.657 127.882 147.736  0.00  0.00    -0.362 OA
ATOM     33  H           0     138.250 127.713 146.991  0.00  0.00     0.213 HD
ENDBRANCH  18  32
BRANCH  18  34
ATOM     34  O           0     138.268 129.954 146.813  0.00  0.00    -0.362 OA
ATOM     35  H           0     139.204 129.924 147.052  0.00  0.00     0.213 HD
ENDBRANCH  18  34
TORSDOF 6
ENDMDL
MODEL 2
REMARK VINA RESULT:      -7.9      2.191      3.129
REMARK  6 active torsions:
REMARK  status: ('A' for Active; 'I' for Inactive)
REMARK    1  A    between atoms: C_6  and  C_7 
REMARK    2  A    between atoms: C_7  and  O_8 
REMARK    3  A    between atoms: O_8  and  C_9 
REMARK    4  A    between atoms: C_9  and  C_10 
REMARK    5  A    between atoms: C_28  and  O_29 
REMARK    6  A    between atoms: C_28  and  O_30 
ROOT
ATOM      1  N           0     134.748 131.558 145.285  0.00  0.00    -0.235 N 
ATOM      2  H           0     134.615 131.353 144.346  0.00  0.00     0.174 HD
ATOM      3  H           0     134.016 131.915 145.812  0.00  0.00     0.174 HD
ATOM      4  C           0     135.910 131.351 145.838  0.00  0.00     0.672 C 
ATOM      5  N           0     136.983 130.839 145.128  0.00  0.00    -0.218 N 
ATOM      6  C           0     138.330 131.198 145.559  0.00  0.00     0.151 C 
ATOM      7  C           0     138.555 130.959 147.039  0.00  0.00     0.180 C 
ATOM      8  N           0     138.752 129.513 147.275  0.00  0.00    -0.216 N 
ATOM      9  C           0     138.098 129.190 148.438  0.00  0.00     0.670 C 
ATOM     10  N           0     138.341 128.119 149.142  0.00  0.00    -0.235 N 
ATOM     11  H           0     139.023 127.493 148.851  0.00  0.00     0.174 HD
ATOM     12  H           0     137.842 127.950 149.956  0.00  0.00     0.174 HD
ATOM     13  C           0     137.362 131.312 147.914  0.00  0.00     0.217 C 
ATOM     14  N           0     137.156 130.132 148.768  0.00  0.00    -0.191 N 
ATOM     15  N           0     136.150 131.629 147.158  0.00  0.00    -0.183 N 
ATOM     16  C           0     135.281 132.358 148.101  0.00  0.00     0.150 C 
ATOM     17  C           0     136.256 133.246 148.911  0.00  0.00     0.093 C 
ATOM     18  C           0     137.634 132.548 148.787  0.00  0.00     0.209 C 
ATOM     19  H           0     136.843 130.256 144.366  0.00  0.00     0.178 HD
ATOM     20  H           0     139.252 128.904 146.710  0.00  0.00     0.178 HD
ATOM     21  H           0     136.473 130.036 149.450  0.00  0.00     0.180 HD
ENDROOT
BRANCH   6  22
ATOM     22  C           0     138.567 132.679 145.258  0.00  0.00     0.207 C 
BRANCH  22  23
ATOM     23  O           0     138.703 132.866 143.824  0.00  0.00    -0.315 OA
BRANCH  23  24
ATOM     24  C           0     138.094 133.904 143.219  0.00  0.00     0.293 C 
ATOM     25  O           0     138.738 134.886 142.904  0.00  0.00    -0.259 OA
BRANCH  24  26
ATOM     26  C           0     136.645 133.849 142.940  0.00  0.00     0.039 A 
ATOM     27  C           0     135.794 134.829 143.455  0.00  0.00     0.017 A 
ATOM     28  C           0     134.442 134.774 143.186  0.00  0.00     0.001 A 
ATOM     29  C           0     133.927 133.745 142.417  0.00  0.00     0.000 A 
ATOM     30  C           0     134.764 132.768 141.909  0.00  0.00     0.001 A 
ATOM     31  C           0     136.119 132.813 142.166  0.00  0.00     0.017 A 
ENDBRANCH  24  26
ENDBRANCH  23  24
ENDBRANCH  22  23
ENDBRANCH   6  22
BRANCH  18  32
ATOM     32  O           0     138.113 132.159 150.076  0.00  0.00    -0.362 OA
ATOM     33  H           0     137.385 132.293 150.697  0.00  0.00     0.213 HD
ENDBRANCH  18  32
BRANCH  18  34
ATOM     34  O           0     138.574 133.414 148.145  0.00  0.00    -0.362 OA
ATOM     35  H           0     138.599 134.230 148.661  0.00  0.00     0.213 HD
ENDBRANCH  18  34
TORSDOF 6
ENDMDL
MODEL 3
REMARK VINA RESULT:      -7.8     11.352     14.383
REMARK  6 active torsions:
REMARK  status: ('A' for Active; 'I' for Inactive)
REMARK    1  A    between atoms: C_6  and  C_7 
REMARK    2  A    between atoms: C_7  and  O_8 
REMARK    3  A    between atoms: O_8  and  C_9 
REMARK    4  A    between atoms: C_9  and  C_10 
REMARK    5  A    between atoms: C_28  and  O_29 
REMARK    6  A    between atoms: C_28  and  O_30 
ROOT
ATOM      1  N           0     128.755 134.346 131.985  0.00  0.00    -0.235 N 
ATOM      2  H           0     128.033 133.958 131.467  0.00  0.00     0.174 HD
ATOM      3  H           0     128.915 135.303 131.952  0.00  0.00     0.174 HD
ATOM      4  C           0     129.507 133.585 132.728  0.00  0.00     0.672 C 
ATOM      5  N           0     129.315 132.216 132.811  0.00  0.00    -0.218 N 
ATOM      6  C           0     130.470 131.372 133.104  0.00  0.00     0.151 C 
ATOM      7  C           0     131.243 131.840 134.322  0.00  0.00     0.180 C 
ATOM      8  N           0     130.511 131.444 135.544  0.00  0.00    -0.216 N 
ATOM      9  C           0     130.610 132.480 136.440  0.00  0.00     0.670 C 
ATOM     10  N           0     130.410 132.359 137.723  0.00  0.00    -0.235 N 
ATOM     11  H           0     130.176 131.496 138.098  0.00  0.00     0.174 HD
ATOM     12  H           0     130.497 133.133 138.302  0.00  0.00     0.174 HD
ATOM     13  C           0     131.360 133.352 134.441  0.00  0.00     0.217 C 
ATOM     14  N           0     130.944 133.657 135.819  0.00  0.00    -0.191 N 
ATOM     15  N           0     130.542 134.085 133.473  0.00  0.00    -0.183 N 
ATOM     16  C           0     131.111 135.445 133.433  0.00  0.00     0.150 C 
ATOM     17  C           0     132.639 135.225 133.539  0.00  0.00     0.093 C 
ATOM     18  C           0     132.800 133.838 134.210  0.00  0.00     0.209 C 
ATOM     19  H           0     128.436 131.828 132.679  0.00  0.00     0.178 HD
ATOM     20  H           0     130.046 130.606 135.686  0.00  0.00     0.178 HD
ATOM     21  H           0     130.914 134.539 136.221  0.00  0.00     0.180 HD
ENDROOT
BRANCH   6  22
ATOM     22  C           0     131.407 131.380 131.895  0.00  0.00     0.207 C 
BRANCH  22  23
ATOM     23  O           0     131.711 130.013 131.510  0.00  0.00    -0.315 OA
BRANCH  23  24
ATOM     24  C           0     132.776 129.384 132.043  0.00  0.00     0.293 C 
ATOM     25  O           0     133.804 129.999 132.250  0.00  0.00    -0.259 OA
BRANCH  24  26
ATOM     26  C           0     132.695 127.947 132.375  0.00  0.00     0.039 A 
ATOM     27  C           0     131.468 127.374 132.718  0.00  0.00     0.017 A 
ATOM     28  C           0     131.399 126.030 133.022  0.00  0.00     0.001 A 
ATOM     29  C           0     132.544 125.253 133.000  0.00  0.00     0.000 A 
ATOM     30  C           0     133.763 125.816 132.668  0.00  0.00     0.001 A 
ATOM     31  C           0     133.846 127.157 132.356  0.00  0.00     0.017 A 
ENDBRANCH  24  26
ENDBRANCH  23  24
ENDBRANCH  22  23
ENDBRANCH   6  22
BRANCH  18  32
ATOM     32  O           0     133.495 133.962 135.452  0.00  0.00    -0.362 OA
ATOM     33  H           0     133.176 134.773 135.871  0.00  0.00     0.213 HD
ENDBRANCH  18  32
BRANCH  18  34
ATOM     34  O           0     133.493 132.941 133.338  0.00  0.00    -0.362 OA
ATOM     35  H           0     134.180 132.513 133.866  0.00  0.00     0.213 HD
ENDBRANCH  18  34
TORSDOF 6
ENDMDL
MODEL 4
REMARK VINA RESULT:      -7.8      2.896      6.668
REMARK  6 active torsions:
REMARK  status: ('A' for Active; 'I' for Inactive)
REMARK    1  A    between atoms: C_6  and  C_7 
REMARK    2  A    between atoms: C_7  and  O_8 
REMARK    3  A    between atoms: O_8  and  C_9 
REMARK    4  A    between atoms: C_9  and  C_10 
REMARK    5  A    between atoms: C_28  and  O_29 
REMARK    6  A    between atoms: C_28  and  O_30 
ROOT
ATOM      1  N           0     134.767 131.887 146.674  0.00  0.00    -0.235 N 
ATOM      2  H           0     134.975 131.976 147.618  0.00  0.00     0.174 HD
ATOM      3  H           0     134.129 131.219 146.380  0.00  0.00     0.174 HD
ATOM      4  C           0     135.344 132.666 145.804  0.00  0.00     0.672 C 
ATOM      5  N           0     136.259 133.637 146.176  0.00  0.00    -0.218 N 
ATOM      6  C           0     137.290 134.020 145.216  0.00  0.00     0.151 C 
ATOM      7  C           0     136.720 134.370 143.855  0.00  0.00     0.180 C 
ATOM      8  N           0     136.121 135.721 143.910  0.00  0.00    -0.216 N 
ATOM      9  C           0     134.963 135.691 143.173  0.00  0.00     0.670 C 
ATOM     10  N           0     134.369 136.752 142.701  0.00  0.00    -0.235 N 
ATOM     11  H           0     134.746 137.631 142.864  0.00  0.00     0.174 HD
ATOM     12  H           0     133.552 136.661 142.187  0.00  0.00     0.174 HD
ATOM     13  C           0     135.569 133.479 143.414  0.00  0.00     0.217 C 
ATOM     14  N           0     134.509 134.409 142.995  0.00  0.00    -0.191 N 
ATOM     15  N           0     135.089 132.575 144.461  0.00  0.00    -0.183 N 
ATOM     16  C           0     134.332 131.526 143.753  0.00  0.00     0.150 C 
ATOM     17  C           0     135.146 131.272 142.461  0.00  0.00     0.093 C 
ATOM     18  C           0     135.963 132.570 142.238  0.00  0.00     0.209 C 
ATOM     19  H           0     136.215 134.052 147.051  0.00  0.00     0.178 HD
ATOM     20  H           0     136.482 136.488 144.382  0.00  0.00     0.178 HD
ATOM     21  H           0     133.638 134.159 142.649  0.00  0.00     0.180 HD
ENDROOT
BRANCH   6  22
ATOM     22  C           0     138.271 132.857 145.054  0.00  0.00     0.207 C 
BRANCH  22  23
ATOM     23  O           0     139.106 132.761 146.238  0.00  0.00    -0.315 OA
BRANCH  23  24
ATOM     24  C           0     140.115 131.870 146.280  0.00  0.00     0.293 C 
ATOM     25  O           0     141.125 132.064 145.631  0.00  0.00    -0.259 OA
BRANCH  24  26
ATOM     26  C           0     139.995 130.657 147.114  0.00  0.00     0.039 A 
ATOM     27  C           0     141.087 129.800 147.268  0.00  0.00     0.017 A 
ATOM     28  C           0     140.969 128.671 148.052  0.00  0.00     0.001 A 
ATOM     29  C           0     139.768 128.381 148.676  0.00  0.00     0.000 A 
ATOM     30  C           0     138.681 129.222 148.523  0.00  0.00     0.001 A 
ATOM     31  C           0     138.786 130.357 147.745  0.00  0.00     0.017 A 
ENDBRANCH  24  26
ENDBRANCH  23  24
ENDBRANCH  22  23
ENDBRANCH   6  22
BRANCH  18  32
ATOM     32  O           0     135.607 133.175 140.993  0.00  0.00    -0.362 OA
ATOM     33  H           0     135.196 134.025 141.203  0.00  0.00     0.213 HD
ENDBRANCH  18  32
BRANCH  18  34
ATOM     34  O           0     137.364 132.288 142.275  0.00  0.00    -0.362 OA
ATOM     35  H           0     137.528 131.794 143.089  0.00  0.00     0.213 HD
ENDBRANCH  18  34
TORSDOF 6
ENDMDL
MODEL 5
REMARK VINA RESULT:      -7.7     12.079     14.555
REMARK  6 active torsions:
REMARK  status: ('A' for Active; 'I' for Inactive)
REMARK    1  A    between atoms: C_6  and  C_7 
REMARK    2  A    between atoms: C_7  and  O_8 
REMARK    3  A    between atoms: O_8  and  C_9 
REMARK    4  A    between atoms: C_9  and  C_10 
REMARK    5  A    between atoms: C_28  and  O_29 
REMARK    6  A    between atoms: C_28  and  O_30 
ROOT
ATOM      1  N           0     134.532 133.546 132.326  0.00  0.00    -0.235 N 
ATOM      2  H           0     134.561 132.915 131.590  0.00  0.00     0.174 HD
ATOM      3  H           0     135.356 133.927 132.671  0.00  0.00     0.174 HD
ATOM      4  C           0     133.388 133.886 132.849  0.00  0.00     0.672 C 
ATOM      5  N           0     132.187 133.374 132.389  0.00  0.00    -0.218 N 
ATOM      6  C           0     131.075 133.271 133.328  0.00  0.00     0.151 C 
ATOM      7  C           0     130.810 134.568 134.068  0.00  0.00     0.180 C 
ATOM      8  N           0     130.102 135.505 133.169  0.00  0.00    -0.216 N 
ATOM      9  C           0     130.617 136.759 133.388  0.00  0.00     0.670 C 
ATOM     10  N           0     130.014 137.866 133.057  0.00  0.00    -0.235 N 
ATOM     11  H           0     129.144 137.835 132.629  0.00  0.00     0.174 HD
ATOM     12  H           0     130.434 138.721 133.241  0.00  0.00     0.174 HD
ATOM     13  C           0     132.069 135.325 134.465  0.00  0.00     0.217 C 
ATOM     14  N           0     131.846 136.702 133.997  0.00  0.00    -0.191 N 
ATOM     15  N           0     133.296 134.769 133.892  0.00  0.00    -0.183 N 
ATOM     16  C           0     134.392 135.316 134.715  0.00  0.00     0.150 C 
ATOM     17  C           0     133.828 135.310 136.156  0.00  0.00     0.093 C 
ATOM     18  C           0     132.288 135.318 135.986  0.00  0.00     0.209 C 
ATOM     19  H           0     132.087 133.092 131.466  0.00  0.00     0.178 HD
ATOM     20  H           0     129.401 135.275 132.540  0.00  0.00     0.178 HD
ATOM     21  H           0     132.461 137.445 134.103  0.00  0.00     0.180 HD
ENDROOT
BRANCH   6  22
ATOM     22  C           0     131.391 132.178 134.351  0.00  0.00     0.207 C 
BRANCH  22  23
ATOM     23  O           0     130.792 130.926 133.922  0.00  0.00    -0.315 OA
BRANCH  23  24
ATOM     24  C           0     131.521 130.036 133.222  0.00  0.00     0.293 C 
ATOM     25  O           0     132.691 130.264 132.982  0.00  0.00    -0.259 OA
BRANCH  24  26
ATOM     26  C           0     130.900 128.783 132.747  0.00  0.00     0.039 A 
ATOM     27  C           0     129.510 128.680 132.656  0.00  0.00     0.017 A 
ATOM     28  C           0     128.937 127.508 132.207  0.00  0.00     0.001 A 
ATOM     29  C           0     129.734 126.433 131.857  0.00  0.00     0.000 A 
ATOM     30  C           0     131.111 126.527 131.951  0.00  0.00     0.001 A 
ATOM     31  C           0     131.699 127.694 132.394  0.00  0.00     0.017 A 
ENDBRANCH  24  26
ENDBRANCH  23  24
ENDBRANCH  22  23
ENDBRANCH   6  22
BRANCH  18  32
ATOM     32  O           0     131.727 136.491 136.581  0.00  0.00    -0.362 OA
ATOM     33  H           0     130.791 136.507 136.338  0.00  0.00     0.213 HD
ENDBRANCH  18  32
BRANCH  18  34
ATOM     34  O           0     131.717 134.142 136.566  0.00  0.00    -0.362 OA
ATOM     35  H           0     132.298 133.879 137.292  0.00  0.00     0.213 HD
ENDBRANCH  18  34
TORSDOF 6
ENDMDL
MODEL 6
REMARK VINA RESULT:      -7.6      1.657      2.323
REMARK  6 active torsions:
REMARK  status: ('A' for Active; 'I' for Inactive)
REMARK    1  A    between atoms: C_6  and  C_7 
REMARK    2  A    between atoms: C_7  and  O_8 
REMARK    3  A    between atoms: O_8  and  C_9 
REMARK    4  A    between atoms: C_9  and  C_10 
REMARK    5  A    between atoms: C_28  and  O_29 
REMARK    6  A    between atoms: C_28  and  O_30 
ROOT
ATOM      1  N           0     133.570 131.677 148.882  0.00  0.00    -0.235 N 
ATOM      2  H           0     132.679 131.390 148.626  0.00  0.00     0.174 HD
ATOM      3  H           0     133.684 132.329 149.590  0.00  0.00     0.174 HD
ATOM      4  C           0     134.612 131.183 148.275  0.00  0.00     0.672 C 
ATOM      5  N           0     134.500 130.246 147.262  0.00  0.00    -0.218 N 
ATOM      6  C           0     135.545 130.201 146.243  0.00  0.00     0.151 C 
ATOM      7  C           0     136.938 130.125 146.838  0.00  0.00     0.180 C 
ATOM      8  N           0     137.192 128.747 147.309  0.00  0.00    -0.216 N 
ATOM      9  C           0     137.877 128.835 148.496  0.00  0.00     0.670 C 
ATOM     10  N           0     138.574 127.861 149.013  0.00  0.00    -0.235 N 
ATOM     11  H           0     138.632 127.009 148.552  0.00  0.00     0.174 HD
ATOM     12  H           0     139.035 127.990 149.856  0.00  0.00     0.174 HD
ATOM     13  C           0     137.131 130.978 148.082  0.00  0.00     0.217 C 
ATOM     14  N           0     137.736 130.073 149.072  0.00  0.00    -0.191 N 
ATOM     15  N           0     135.890 131.560 148.596  0.00  0.00    -0.183 N 
ATOM     16  C           0     136.313 132.667 149.475  0.00  0.00     0.150 C 
ATOM     17  C           0     137.524 133.294 148.744  0.00  0.00     0.093 C 
ATOM     18  C           0     138.066 132.171 147.824  0.00  0.00     0.209 C 
ATOM     19  H           0     133.747 129.636 147.230  0.00  0.00     0.178 HD
ATOM     20  H           0     136.923 127.930 146.861  0.00  0.00     0.178 HD
ATOM     21  H           0     137.994 130.310 149.976  0.00  0.00     0.180 HD
ENDROOT
BRANCH   6  22
ATOM     22  C           0     135.447 131.460 145.379  0.00  0.00     0.207 C 
BRANCH  22  23
ATOM     23  O           0     136.267 131.295 144.191  0.00  0.00    -0.315 OA
BRANCH  23  24
ATOM     24  C           0     136.728 132.377 143.535  0.00  0.00     0.293 C 
ATOM     25  O           0     137.909 132.464 143.261  0.00  0.00    -0.259 OA
BRANCH  24  26
ATOM     26  C           0     135.798 133.459 143.151  0.00  0.00     0.039 A 
ATOM     27  C           0     134.816 133.230 142.185  0.00  0.00     0.017 A 
ATOM     28  C           0     133.948 134.243 141.835  0.00  0.00     0.001 A 
ATOM     29  C           0     134.057 135.488 142.429  0.00  0.00     0.000 A 
ATOM     30  C           0     135.032 135.724 143.382  0.00  0.00     0.001 A 
ATOM     31  C           0     135.904 134.718 143.746  0.00  0.00     0.017 A 
ENDBRANCH  24  26
ENDBRANCH  23  24
ENDBRANCH  22  23
ENDBRANCH   6  22
BRANCH  18  32
ATOM     32  O           0     139.411 131.842 148.177  0.00  0.00    -0.362 OA
ATOM     33  H           0     139.378 130.995 148.644  0.00  0.00     0.213 HD
ENDBRANCH  18  32
BRANCH  18  34
ATOM     34  O           0     137.993 132.572 146.453  0.00  0.00    -0.362 OA
ATOM     35  H           0     137.366 131.977 146.022  0.00  0.00     0.213 HD
ENDBRANCH  18  34
TORSDOF 6
ENDMDL
MODEL 7
REMARK VINA RESULT:      -7.4     11.213     14.378
REMARK  6 active torsions:
REMARK  status: ('A' for Active; 'I' for Inactive)
REMARK    1  A    between atoms: C_6  and  C_7 
REMARK    2  A    between atoms: C_7  and  O_8 
REMARK    3  A    between atoms: O_8  and  C_9 
REMARK    4  A    between atoms: C_9  and  C_10 
REMARK    5  A    between atoms: C_28  and  O_29 
REMARK    6  A    between atoms: C_28  and  O_30 
ROOT
ATOM      1  N           0     129.396 135.738 132.624  0.00  0.00    -0.235 N 
ATOM      2  H           0     128.512 135.355 132.515  0.00  0.00     0.174 HD
ATOM      3  H           0     129.630 136.556 132.159  0.00  0.00     0.174 HD
ATOM      4  C           0     130.268 135.157 133.399  0.00  0.00     0.672 C 
ATOM      5  N           0     129.979 133.991 134.088  0.00  0.00    -0.218 N 
ATOM      6  C           0     131.078 133.083 134.401  0.00  0.00     0.151 C 
ATOM      7  C           0     132.241 133.783 135.076  0.00  0.00     0.180 C 
ATOM      8  N           0     131.903 134.031 136.494  0.00  0.00    -0.216 N 
ATOM      9  C           0     132.384 135.275 136.823  0.00  0.00     0.670 C 
ATOM     10  N           0     132.594 135.679 138.045  0.00  0.00    -0.235 N 
ATOM     11  H           0     132.408 135.085 138.790  0.00  0.00     0.174 HD
ATOM     12  H           0     132.936 136.571 138.209  0.00  0.00     0.174 HD
ATOM     13  C           0     132.538 135.169 134.524  0.00  0.00     0.217 C 
ATOM     14  N           0     132.616 136.040 135.708  0.00  0.00    -0.191 N 
ATOM     15  N           0     131.530 135.656 133.581  0.00  0.00    -0.183 N 
ATOM     16  C           0     132.187 136.748 132.839  0.00  0.00     0.150 C 
ATOM     17  C           0     133.639 136.254 132.636  0.00  0.00     0.093 C 
ATOM     18  C           0     133.870 135.209 133.756  0.00  0.00     0.209 C 
ATOM     19  H           0     129.070 133.783 134.356  0.00  0.00     0.178 HD
ATOM     20  H           0     131.427 133.426 137.084  0.00  0.00     0.178 HD
ATOM     21  H           0     132.803 136.991 135.701  0.00  0.00     0.180 HD
ENDROOT
BRANCH   6  22
ATOM     22  C           0     131.576 132.443 133.104  0.00  0.00     0.207 C 
BRANCH  22  23
ATOM     23  O           0     130.882 131.185 132.888  0.00  0.00    -0.315 OA
BRANCH  23  24
ATOM     24  C           0     131.490 130.021 133.188  0.00  0.00     0.293 C 
ATOM     25  O           0     132.518 130.022 133.838  0.00  0.00    -0.259 OA
BRANCH  24  26
ATOM     26  C           0     130.909 128.744 132.727  0.00  0.00     0.039 A 
ATOM     27  C           0     129.524 128.601 132.619  0.00  0.00     0.017 A 
ATOM     28  C           0     128.988 127.407 132.183  0.00  0.00     0.001 A 
ATOM     29  C           0     129.819 126.348 131.865  0.00  0.00     0.000 A 
ATOM     30  C           0     131.192 126.480 131.976  0.00  0.00     0.001 A 
ATOM     31  C           0     131.742 127.670 132.405  0.00  0.00     0.017 A 
ENDBRANCH  24  26
ENDBRANCH  23  24
ENDBRANCH  22  23
ENDBRANCH   6  22
BRANCH  18  32
ATOM     32  O           0     134.934 135.625 134.615  0.00  0.00    -0.362 OA
ATOM     33  H           0     135.453 134.835 134.819  0.00  0.00     0.213 HD
ENDBRANCH  18  32
BRANCH  18  34
ATOM     34  O           0     134.156 133.927 133.190  0.00  0.00    -0.362 OA
ATOM     35  H           0     133.683 133.882 132.349  0.00  0.00     0.213 HD
ENDBRANCH  18  34
TORSDOF 6
ENDMDL
MODEL 8
REMARK VINA RESULT:      -7.3      2.959      6.237
REMARK  6 active torsions:
REMARK  status: ('A' for Active; 'I' for Inactive)
REMARK    1  A    between atoms: C_6  and  C_7 
REMARK    2  A    between atoms: C_7  and  O_8 
REMARK    3  A    between atoms: O_8  and  C_9 
REMARK    4  A    between atoms: C_9  and  C_10 
REMARK    5  A    between atoms: C_28  and  O_29 
REMARK    6  A    between atoms: C_28  and  O_30 
ROOT
ATOM      1  N           0     138.832 130.787 145.519  0.00  0.00    -0.235 N 
ATOM      2  H           0     138.979 130.075 146.161  0.00  0.00     0.174 HD
ATOM      3  H           0     139.577 131.138 145.006  0.00  0.00     0.174 HD
ATOM      4  C           0     137.634 131.271 145.344  0.00  0.00     0.672 C 
ATOM      5  N           0     136.540 130.800 146.050  0.00  0.00    -0.218 N 
ATOM      6  C           0     135.430 131.715 146.295  0.00  0.00     0.151 C 
ATOM      7  C           0     134.948 132.403 145.032  0.00  0.00     0.180 C 
ATOM      8  N           0     134.131 131.456 144.244  0.00  0.00    -0.216 N 
ATOM      9  C           0     134.441 131.644 142.919  0.00  0.00     0.670 C 
ATOM     10  N           0     133.684 131.260 141.929  0.00  0.00    -0.235 N 
ATOM     11  H           0     132.842 130.813 142.108  0.00  0.00     0.174 HD
ATOM     12  H           0     133.962 131.425 141.015  0.00  0.00     0.174 HD
ATOM     13  C           0     136.063 132.804 144.078  0.00  0.00     0.217 C 
ATOM     14  N           0     135.646 132.283 142.767  0.00  0.00    -0.191 N 
ATOM     15  N           0     137.377 132.280 144.455  0.00  0.00    -0.183 N 
ATOM     16  C           0     138.352 133.109 143.721  0.00  0.00     0.150 C 
ATOM     17  C           0     137.755 134.536 143.770  0.00  0.00     0.093 C 
ATOM     18  C           0     136.237 134.330 144.005  0.00  0.00     0.209 C 
ATOM     19  H           0     136.511 129.885 146.372  0.00  0.00     0.178 HD
ATOM     20  H           0     133.492 130.818 144.598  0.00  0.00     0.178 HD
ATOM     21  H           0     136.136 132.378 141.936  0.00  0.00     0.180 HD
ENDROOT
BRANCH   6  22
ATOM     22  C           0     135.881 132.783 147.294  0.00  0.00     0.207 C 
BRANCH  22  23
ATOM     23  O           0     135.047 132.716 148.482  0.00  0.00    -0.315 OA
BRANCH  23  24
ATOM     24  C           0     135.021 131.592 149.224  0.00  0.00     0.293 C 
ATOM     25  O           0     136.014 131.241 149.830  0.00  0.00    -0.259 OA
BRANCH  24  26
ATOM     26  C           0     133.785 130.786 149.299  0.00  0.00     0.039 A 
ATOM     27  C           0     133.814 129.427 148.980  0.00  0.00     0.017 A 
ATOM     28  C           0     132.657 128.679 149.057  0.00  0.00     0.001 A 
ATOM     29  C           0     131.468 129.275 149.439  0.00  0.00     0.000 A 
ATOM     30  C           0     131.432 130.622 149.750  0.00  0.00     0.001 A 
ATOM     31  C           0     132.582 131.381 149.682  0.00  0.00     0.017 A 
ENDBRANCH  24  26
ENDBRANCH  23  24
ENDBRANCH  22  23
ENDBRANCH   6  22
BRANCH  18  32
ATOM     32  O           0     135.486 134.869 142.915  0.00  0.00    -0.362 OA
ATOM     33  H           0     136.080 134.898 142.153  0.00  0.00     0.213 HD
ENDBRANCH  18  32
BRANCH  18  34
ATOM     34  O           0     135.836 134.936 145.236  0.00  0.00    -0.362 OA
ATOM     35  H           0     135.013 134.506 145.504  0.00  0.00     0.213 HD
ENDBRANCH  18  34
TORSDOF 6
ENDMDL
MODEL 9
REMARK VINA RESULT:      -7.3     12.741     15.026
REMARK  6 active torsions:
REMARK  status: ('A' for Active; 'I' for Inactive)
REMARK    1  A    between atoms: C_6  and  C_7 
REMARK    2  A    between atoms: C_7  and  O_8 
REMARK    3  A    between atoms: O_8  and  C_9 
REMARK    4  A    between atoms: C_9  and  C_10 
REMARK    5  A    between atoms: C_28  and  O_29 
REMARK    6  A    between atoms: C_28  and  O_30 
ROOT
ATOM      1  N           0     129.804 130.632 133.906  0.00  0.00    -0.235 N 
ATOM      2  H           0     130.047 129.778 134.297  0.00  0.00     0.174 HD
ATOM      3  H           0     128.922 130.755 133.520  0.00  0.00     0.174 HD
ATOM      4  C           0     130.661 131.614 133.901  0.00  0.00     0.672 C 
ATOM      5  N           0     131.929 131.487 134.442  0.00  0.00    -0.218 N 
ATOM      6  C           0     133.001 132.310 133.890  0.00  0.00     0.151 C 
ATOM      7  C           0     132.634 133.780 133.822  0.00  0.00     0.180 C 
ATOM      8  N           0     132.735 134.370 135.174  0.00  0.00    -0.216 N 
ATOM      9  C           0     131.682 135.239 135.326  0.00  0.00     0.670 C 
ATOM     10  N           0     131.641 136.190 136.217  0.00  0.00    -0.235 N 
ATOM     11  H           0     132.387 136.317 136.824  0.00  0.00     0.174 HD
ATOM     12  H           0     130.866 136.771 136.271  0.00  0.00     0.174 HD
ATOM     13  C           0     131.193 134.043 133.415  0.00  0.00     0.217 C 
ATOM     14  N           0     130.679 134.982 134.425  0.00  0.00    -0.191 N 
ATOM     15  N           0     130.367 132.836 133.356  0.00  0.00    -0.183 N 
ATOM     16  C           0     129.195 133.205 132.540  0.00  0.00     0.150 C 
ATOM     17  C           0     129.772 134.117 131.432  0.00  0.00     0.093 C 
ATOM     18  C           0     131.095 134.674 132.016  0.00  0.00     0.209 C 
ATOM     19  H           0     132.100 130.869 135.169  0.00  0.00     0.178 HD
ATOM     20  H           0     133.419 134.178 135.833  0.00  0.00     0.178 HD
ATOM     21  H           0     129.786 135.359 134.448  0.00  0.00     0.180 HD
ENDROOT
BRANCH   6  22
ATOM     22  C           0     133.325 131.818 132.478  0.00  0.00     0.207 C 
BRANCH  22  23
ATOM     23  O           0     133.904 130.488 132.551  0.00  0.00    -0.315 OA
BRANCH  23  24
ATOM     24  C           0     133.223 129.429 132.071  0.00  0.00     0.293 C 
ATOM     25  O           0     132.046 129.541 131.789  0.00  0.00    -0.259 OA
BRANCH  24  26
ATOM     26  C           0     133.906 128.133 131.889  0.00  0.00     0.039 A 
ATOM     27  C           0     133.453 126.999 132.566  0.00  0.00     0.017 A 
ATOM     28  C           0     134.093 125.790 132.387  0.00  0.00     0.001 A 
ATOM     29  C           0     135.189 125.702 131.547  0.00  0.00     0.000 A 
ATOM     30  C           0     135.647 126.822 130.878  0.00  0.00     0.001 A 
ATOM     31  C           0     135.014 128.037 131.043  0.00  0.00     0.017 A 
ENDBRANCH  24  26
ENDBRANCH  23  24
ENDBRANCH  22  23
ENDBRANCH   6  22
BRANCH  18  32
ATOM     32  O           0     131.039 136.099 132.109  0.00  0.00    -0.362 OA
ATOM     33  H           0     131.430 136.447 131.296  0.00  0.00     0.213 HD
ENDBRANCH  18  32
BRANCH  18  34
ATOM     34  O           0     132.205 134.269 131.210  0.00  0.00    -0.362 OA
ATOM     35  H           0     131.937 133.459 130.754  0.00  0.00     0.213 HD
ENDBRANCH  18  34
TORSDOF 6
ENDMDL
