# created with PyMOL 2.3.4
@<TRIPOS>MOLECULE
ligand_out_0001
35 38 1                 
SMALL
USER_CHARGES
@<TRIPOS>ATOM
1	   N	135.162	132.843	149.688	N.3	1	UNK0	-0.235	
2	   N	134.694	132.201	147.473	N.3	1	UNK0	-0.218	
3	   N	134.343	129.372	146.303	N.3	1	UNK0	-0.216	
4	   N	133.587	127.300	147.157	N.3	1	UNK0	-0.235	
5	   N	135.221	128.611	148.255	N.3	1	UNK0	-0.191	
6	   N	135.994	130.827	148.838	N.3	1	UNK0	-0.183	
7	   C	135.280	131.989	148.710	C.3	1	UNK0	0.672	
8	   C	135.326	131.608	146.299	C.3	1	UNK0	0.151	
9	   C	135.604	130.126	146.470	C.3	1	UNK0	0.180	
10	   C	134.338	128.362	147.234	C.3	1	UNK0	0.670	
11	   C	136.079	129.739	147.862	C.3	1	UNK0	0.217	
12	   C	136.882	130.427	149.945	C.3	1	UNK0	0.150	
13	   C	138.089	129.759	149.246	C.3	1	UNK0	0.093	
14	   C	137.553	129.302	147.866	C.3	1	UNK0	0.209	
15	   C	136.649	132.328	146.032	C.2	1	UNK0	0.207	
16	   C	137.339	132.690	143.736	C.2	1	UNK0	0.293	
17	   C	136.141	133.337	143.162	C.3	1	UNK0	0.039	
18	   C	135.373	132.670	142.207	C.3	1	UNK0	0.017	
19	   C	134.252	133.278	141.680	C.3	1	UNK0	0.001	
20	   C	133.896	134.552	142.087	C.3	1	UNK0	0.000	
21	   C	134.657	135.221	143.029	C.3	1	UNK0	0.001	
22	   C	135.777	134.623	143.568	C.3	1	UNK0	0.017	
23	   O	137.216	131.852	144.782	O.2	1	UNK0	-0.315	
24	   O	138.436	132.915	143.263	O.co2	1	UNK0	-0.259	
25	   O	137.657	127.882	147.736	O.2	1	UNK0	-0.362	
26	   O	138.268	129.954	146.813	O.2	1	UNK0	-0.362	
27	   H	134.652	133.658	149.561	 H	1	UNK0	0.174	
28	   H	135.583	132.662	150.543	 H	1	UNK0	0.174	
29	   H	132.984	127.186	146.405	 H	1	UNK0	0.174	
30	   H	133.632	126.623	147.849	 H	1	UNK0	0.174	
31	   H	133.885	132.729	147.390	 H	1	UNK0	0.178	
32	   H	133.647	129.557	145.654	 H	1	UNK0	0.178	
33	   H	135.271	128.123	149.092	 H	1	UNK0	0.180	
34	   H	138.250	127.713	146.991	 H	1	UNK0	0.213	
35	   H	139.204	129.924	147.052	 H	1	UNK0	0.213	
@<TRIPOS>BOND
1 1 7 1
2 1 27 1
3 1 28 1
4 2 8 1
5 2 31 1
6 3 10 1
7 3 32 1
8 4 29 1
9 4 30 1
10 5 33 1
11 6 12 1
12 2 7 1
13 6 7 1
14 8 9 1
15 8 15 1
16 3 9 1
17 9 11 1
18 4 10 1
19 5 10 1
20 5 11 1
21 6 11 1
22 11 14 1
23 12 13 1
24 13 14 1
25 14 25 2
26 14 26 2
27 15 23 2
28 16 17 1
29 16 24 2
30 17 18 1
31 17 22 1
32 18 19 1
33 19 20 1
34 20 21 1
35 21 22 1
36 16 23 2
37 25 34 1
38 26 35 1
@<TRIPOS>SUBSTRUCTURE
1	UNK0	1	GROUP	1 ****	UNK
