# created with PyMOL 2.3.4
@<TRIPOS>MOLECULE
ligand_out_0001
32 34 1                 
SMALL
USER_CHARGES
@<TRIPOS>ATOM
1	   N	135.570	132.702	147.108	N.3	1	UNK0	-0.235	
2	   N	136.819	134.459	146.166	N.3	1	UNK0	-0.218	
3	   N	136.240	136.116	143.634	N.3	1	UNK0	-0.216	
4	   N	134.277	136.786	142.496	N.3	1	UNK0	-0.235	
5	   N	134.678	134.543	143.136	N.3	1	UNK0	-0.191	
6	   N	135.588	133.033	144.791	N.3	1	UNK0	-0.183	
7	   N	140.171	133.392	148.270	N.pl3	1	UNK0	-0.337	
8	   C	135.972	133.369	146.063	C.3	1	UNK0	0.672	
9	   C	137.700	134.757	145.041	C.3	1	UNK0	0.151	
10	   C	136.960	134.827	143.720	C.3	1	UNK0	0.180	
11	   C	135.019	135.871	143.055	C.3	1	UNK0	0.670	
12	   C	135.864	133.785	143.566	C.3	1	UNK0	0.217	
13	   C	134.868	131.824	144.352	C.3	1	UNK0	0.150	
14	   C	135.564	131.423	143.029	C.3	1	UNK0	0.093	
15	   C	136.220	132.727	142.509	C.3	1	UNK0	0.209	
16	   C	138.770	133.668	144.948	C.2	1	UNK0	0.208	
17	   C	139.743	132.981	147.060	C.2	1	UNK0	0.362	
18	   C	140.184	132.459	149.399	C.3	1	UNK0	0.154	
19	   C	140.626	134.772	148.457	C.3	1	UNK0	0.154	
20	   O	139.731	133.840	146.023	O.2	1	UNK0	-0.302	
21	   O	139.366	131.837	146.906	O.co2	1	UNK0	-0.238	
22	   O	135.678	133.086	141.236	O.2	1	UNK0	-0.362	
23	   O	137.638	132.570	142.421	O.2	1	UNK0	-0.362	
24	   H	135.865	132.964	147.994	 H	1	UNK0	0.174	
25	   H	134.972	131.945	147.000	 H	1	UNK0	0.174	
26	   H	134.579	137.707	142.472	 H	1	UNK0	0.174	
27	   H	133.423	136.544	142.104	 H	1	UNK0	0.174	
28	   H	136.827	135.010	146.964	 H	1	UNK0	0.178	
29	   H	136.569	136.978	143.933	 H	1	UNK0	0.178	
30	   H	133.804	134.169	142.940	 H	1	UNK0	0.180	
31	   H	135.680	134.052	141.194	 H	1	UNK0	0.213	
32	   H	137.843	131.691	142.765	 H	1	UNK0	0.213	
@<TRIPOS>BOND
1 1 8 1
2 1 24 1
3 1 25 1
4 2 9 1
5 2 28 1
6 3 11 1
7 3 29 1
8 4 26 1
9 4 27 1
10 5 30 1
11 6 13 1
12 7 18 1
13 7 19 1
14 2 8 1
15 6 8 1
16 9 10 1
17 9 16 1
18 3 10 1
19 10 12 1
20 4 11 1
21 5 11 1
22 5 12 1
23 6 12 1
24 12 15 1
25 13 14 1
26 14 15 1
27 15 22 2
28 15 23 2
29 16 20 2
30 7 17 1
31 17 21 2
32 17 20 2
33 22 31 1
34 23 32 1
@<TRIPOS>SUBSTRUCTURE
1	UNK0	1	GROUP	1 ****	UNK
