MODEL 1
REMARK VINA RESULT:      -8.2      0.000      0.000
REMARK  5 active torsions:
REMARK  status: ('A' for Active; 'I' for Inactive)
REMARK    1  A    between atoms: C_6  and  C_7 
REMARK    2  A    between atoms: C_7  and  O_8 
REMARK    3  A    between atoms: O_8  and  C_9 
REMARK       I    between atoms: C_9  and  N_10 
REMARK    4  A    between atoms: C_25  and  O_26 
REMARK    5  A    between atoms: C_25  and  O_27 
ROOT
ATOM      1  N           0     135.570 132.702 147.108  0.00  0.00    -0.235 N 
ATOM      2  H           0     135.865 132.964 147.994  0.00  0.00     0.174 HD
ATOM      3  H           0     134.972 131.945 147.000  0.00  0.00     0.174 HD
ATOM      4  C           0     135.972 133.369 146.063  0.00  0.00     0.672 C 
ATOM      5  N           0     136.819 134.459 146.166  0.00  0.00    -0.218 N 
ATOM      6  C           0     137.700 134.757 145.041  0.00  0.00     0.151 C 
ATOM      7  C           0     136.960 134.827 143.720  0.00  0.00     0.180 C 
ATOM      8  N           0     136.240 136.116 143.634  0.00  0.00    -0.216 N 
ATOM      9  C           0     135.019 135.871 143.055  0.00  0.00     0.670 C 
ATOM     10  N           0     134.277 136.786 142.496  0.00  0.00    -0.235 N 
ATOM     11  H           0     134.579 137.707 142.472  0.00  0.00     0.174 HD
ATOM     12  H           0     133.423 136.544 142.104  0.00  0.00     0.174 HD
ATOM     13  C           0     135.864 133.785 143.566  0.00  0.00     0.217 C 
ATOM     14  N           0     134.678 134.543 143.136  0.00  0.00    -0.191 N 
ATOM     15  N           0     135.588 133.033 144.791  0.00  0.00    -0.183 N 
ATOM     16  C           0     134.868 131.824 144.352  0.00  0.00     0.150 C 
ATOM     17  C           0     135.564 131.423 143.029  0.00  0.00     0.093 C 
ATOM     18  C           0     136.220 132.727 142.509  0.00  0.00     0.209 C 
ATOM     19  H           0     136.827 135.010 146.964  0.00  0.00     0.178 HD
ATOM     20  H           0     136.569 136.978 143.933  0.00  0.00     0.178 HD
ATOM     21  H           0     133.804 134.169 142.940  0.00  0.00     0.180 HD
ENDROOT
BRANCH   6  22
ATOM     22  C           0     138.770 133.668 144.948  0.00  0.00     0.208 C 
BRANCH  22  23
ATOM     23  O           0     139.731 133.840 146.023  0.00  0.00    -0.302 OA
BRANCH  23  24
ATOM     24  C           0     139.743 132.981 147.060  0.00  0.00     0.362 C 
ATOM     25  N           0     140.171 133.392 148.270  0.00  0.00    -0.337 N 
ATOM     26  C           0     140.184 132.459 149.399  0.00  0.00     0.154 C 
ATOM     27  C           0     140.626 134.772 148.457  0.00  0.00     0.154 C 
ATOM     28  O           0     139.366 131.837 146.906  0.00  0.00    -0.238 OA
ENDBRANCH  23  24
ENDBRANCH  22  23
ENDBRANCH   6  22
BRANCH  18  29
ATOM     29  O           0     135.678 133.086 141.236  0.00  0.00    -0.362 OA
ATOM     30  H           0     135.680 134.052 141.194  0.00  0.00     0.213 HD
ENDBRANCH  18  29
BRANCH  18  31
ATOM     31  O           0     137.638 132.570 142.421  0.00  0.00    -0.362 OA
ATOM     32  H           0     137.843 131.691 142.765  0.00  0.00     0.213 HD
ENDBRANCH  18  31
TORSDOF 5
ENDMDL
MODEL 2
REMARK VINA RESULT:      -7.5      2.606      6.228
REMARK  5 active torsions:
REMARK  status: ('A' for Active; 'I' for Inactive)
REMARK    1  A    between atoms: C_6  and  C_7 
REMARK    2  A    between atoms: C_7  and  O_8 
REMARK    3  A    between atoms: O_8  and  C_9 
REMARK       I    between atoms: C_9  and  N_10 
REMARK    4  A    between atoms: C_25  and  O_26 
REMARK    5  A    between atoms: C_25  and  O_27 
ROOT
ATOM      1  N           0     135.175 130.467 143.248  0.00  0.00    -0.235 N 
ATOM      2  H           0     134.950 130.276 142.324  0.00  0.00     0.174 HD
ATOM      3  H           0     134.859 129.884 143.956  0.00  0.00     0.174 HD
ATOM      4  C           0     135.908 131.506 143.538  0.00  0.00     0.672 C 
ATOM      5  N           0     136.388 132.364 142.564  0.00  0.00    -0.218 N 
ATOM      6  C           0     136.631 133.756 142.928  0.00  0.00     0.151 C 
ATOM      7  C           0     137.481 133.896 144.176  0.00  0.00     0.180 C 
ATOM      8  N           0     138.895 133.630 143.832  0.00  0.00    -0.216 N 
ATOM      9  C           0     139.443 132.907 144.863  0.00  0.00     0.670 C 
ATOM     10  N           0     140.724 132.805 145.085  0.00  0.00    -0.235 N 
ATOM     11  H           0     141.354 133.255 144.502  0.00  0.00     0.174 HD
ATOM     12  H           0     141.045 132.277 145.834  0.00  0.00     0.174 HD
ATOM     13  C           0     137.170 132.873 145.257  0.00  0.00     0.217 C 
ATOM     14  N           0     138.476 132.308 145.632  0.00  0.00    -0.191 N 
ATOM     15  N           0     136.248 131.821 144.828  0.00  0.00    -0.183 N 
ATOM     16  C           0     135.729 131.225 146.072  0.00  0.00     0.150 C 
ATOM     17  C           0     135.549 132.430 147.028  0.00  0.00     0.093 C 
ATOM     18  C           0     136.508 133.520 146.486  0.00  0.00     0.209 C 
ATOM     19  H           0     136.560 132.048 141.663  0.00  0.00     0.178 HD
ATOM     20  H           0     139.351 133.913 143.025  0.00  0.00     0.178 HD
ATOM     21  H           0     138.629 131.630 146.309  0.00  0.00     0.180 HD
ENDROOT
BRANCH   6  22
ATOM     22  C           0     135.286 134.445 143.171  0.00  0.00     0.208 C 
BRANCH  22  23
ATOM     23  O           0     134.570 134.564 141.913  0.00  0.00    -0.302 OA
BRANCH  23  24
ATOM     24  C           0     133.513 133.767 141.663  0.00  0.00     0.362 C 
ATOM     25  N           0     132.836 133.891 140.503  0.00  0.00    -0.337 N 
ATOM     26  C           0     131.687 133.024 140.230  0.00  0.00     0.154 C 
ATOM     27  C           0     133.248 134.892 139.517  0.00  0.00     0.154 C 
ATOM     28  O           0     133.171 132.936 142.480  0.00  0.00    -0.238 OA
ENDBRANCH  23  24
ENDBRANCH  22  23
ENDBRANCH   6  22
BRANCH  18  29
ATOM     29  O           0     137.490 133.854 147.469  0.00  0.00    -0.362 OA
ATOM     30  H           0     137.221 133.419 148.290  0.00  0.00     0.213 HD
ENDBRANCH  18  29
BRANCH  18  31
ATOM     31  O           0     135.772 134.683 146.100  0.00  0.00    -0.362 OA
ATOM     32  H           0     135.345 135.021 146.898  0.00  0.00     0.213 HD
ENDBRANCH  18  31
TORSDOF 5
ENDMDL
MODEL 3
REMARK VINA RESULT:      -7.3      3.204      4.741
REMARK  5 active torsions:
REMARK  status: ('A' for Active; 'I' for Inactive)
REMARK    1  A    between atoms: C_6  and  C_7 
REMARK    2  A    between atoms: C_7  and  O_8 
REMARK    3  A    between atoms: O_8  and  C_9 
REMARK       I    between atoms: C_9  and  N_10 
REMARK    4  A    between atoms: C_25  and  O_26 
REMARK    5  A    between atoms: C_25  and  O_27 
ROOT
ATOM      1  N           0     138.724 130.566 145.783  0.00  0.00    -0.235 N 
ATOM      2  H           0     138.594 129.660 146.104  0.00  0.00     0.174 HD
ATOM      3  H           0     139.606 130.970 145.816  0.00  0.00     0.174 HD
ATOM      4  C           0     137.717 131.239 145.301  0.00  0.00     0.672 C 
ATOM      5  N           0     136.443 130.704 145.226  0.00  0.00    -0.218 N 
ATOM      6  C           0     135.306 131.617 145.290  0.00  0.00     0.151 C 
ATOM      7  C           0     135.420 132.764 144.306  0.00  0.00     0.180 C 
ATOM      8  N           0     135.088 132.277 142.950  0.00  0.00    -0.216 N 
ATOM      9  C           0     135.956 132.875 142.070  0.00  0.00     0.670 C 
ATOM     10  N           0     135.746 132.974 140.787  0.00  0.00    -0.235 N 
ATOM     11  H           0     134.934 132.611 140.400  0.00  0.00     0.174 HD
ATOM     12  H           0     136.402 133.410 140.220  0.00  0.00     0.174 HD
ATOM     13  C           0     136.829 133.318 144.159  0.00  0.00     0.217 C 
ATOM     14  N           0     137.072 133.357 142.708  0.00  0.00    -0.191 N 
ATOM     15  N           0     137.850 132.523 144.841  0.00  0.00    -0.183 N 
ATOM     16  C           0     139.016 133.416 144.973  0.00  0.00     0.150 C 
ATOM     17  C           0     138.403 134.801 145.292  0.00  0.00     0.093 C 
ATOM     18  C           0     136.954 134.734 144.748  0.00  0.00     0.209 C 
ATOM     19  H           0     136.309 129.747 145.134  0.00  0.00     0.178 HD
ATOM     20  H           0     134.385 131.648 142.723  0.00  0.00     0.178 HD
ATOM     21  H           0     137.882 133.671 142.276  0.00  0.00     0.180 HD
ENDROOT
BRANCH   6  22
ATOM     22  C           0     135.211 132.190 146.705  0.00  0.00     0.208 C 
BRANCH  22  23
ATOM     23  O           0     135.382 131.121 147.673  0.00  0.00    -0.302 OA
BRANCH  23  24
ATOM     24  C           0     134.437 130.902 148.607  0.00  0.00     0.362 C 
ATOM     25  N           0     134.024 129.645 148.866  0.00  0.00    -0.337 N 
ATOM     26  C           0     132.996 129.406 149.882  0.00  0.00     0.154 C 
ATOM     27  C           0     134.601 128.518 148.129  0.00  0.00     0.154 C 
ATOM     28  O           0     133.958 131.836 149.218  0.00  0.00    -0.238 OA
ENDBRANCH  23  24
ENDBRANCH  22  23
ENDBRANCH   6  22
BRANCH  18  29
ATOM     29  O           0     136.755 135.720 143.732  0.00  0.00    -0.362 OA
ATOM     30  H           0     137.231 135.413 142.948  0.00  0.00     0.213 HD
ENDBRANCH  18  29
BRANCH  18  31
ATOM     31  O           0     136.015 134.915 145.810  0.00  0.00    -0.362 OA
ATOM     32  H           0     136.331 134.388 146.555  0.00  0.00     0.213 HD
ENDBRANCH  18  31
TORSDOF 5
ENDMDL
MODEL 4
REMARK VINA RESULT:      -6.9      2.240      5.924
REMARK  5 active torsions:
REMARK  status: ('A' for Active; 'I' for Inactive)
REMARK    1  A    between atoms: C_6  and  C_7 
REMARK    2  A    between atoms: C_7  and  O_8 
REMARK    3  A    between atoms: O_8  and  C_9 
REMARK       I    between atoms: C_9  and  N_10 
REMARK    4  A    between atoms: C_25  and  O_26 
REMARK    5  A    between atoms: C_25  and  O_27 
ROOT
ATOM      1  N           0     136.284 134.682 147.819  0.00  0.00    -0.235 N 
ATOM      2  H           0     135.814 135.452 147.463  0.00  0.00     0.174 HD
ATOM      3  H           0     136.830 134.773 148.617  0.00  0.00     0.174 HD
ATOM      4  C           0     136.179 133.523 147.231  0.00  0.00     0.672 C 
ATOM      5  N           0     135.409 133.342 146.095  0.00  0.00    -0.218 N 
ATOM      6  C           0     135.794 132.289 145.161  0.00  0.00     0.151 C 
ATOM      7  C           0     136.000 130.949 145.840  0.00  0.00     0.180 C 
ATOM      8  N           0     134.682 130.348 146.138  0.00  0.00    -0.216 N 
ATOM      9  C           0     134.768 129.755 147.374  0.00  0.00     0.670 C 
ATOM     10  N           0     133.946 128.837 147.803  0.00  0.00    -0.235 N 
ATOM     11  H           0     133.219 128.534 147.238  0.00  0.00     0.174 HD
ATOM     12  H           0     134.064 128.458 148.689  0.00  0.00     0.174 HD
ATOM     13  C           0     136.676 131.040 147.199  0.00  0.00     0.217 C 
ATOM     14  N           0     135.824 130.246 148.100  0.00  0.00    -0.191 N 
ATOM     15  N           0     136.828 132.408 147.693  0.00  0.00    -0.183 N 
ATOM     16  C           0     137.861 132.332 148.742  0.00  0.00     0.150 C 
ATOM     17  C           0     138.888 131.312 148.194  0.00  0.00     0.093 C 
ATOM     18  C           0     138.098 130.454 147.174  0.00  0.00     0.209 C 
ATOM     19  H           0     134.633 133.899 145.925  0.00  0.00     0.178 HD
ATOM     20  H           0     133.900 130.370 145.566  0.00  0.00     0.178 HD
ATOM     21  H           0     135.983 130.093 149.045  0.00  0.00     0.180 HD
ENDROOT
BRANCH   6  22
ATOM     22  C           0     137.097 132.695 144.469  0.00  0.00     0.208 C 
BRANCH  22  23
ATOM     23  O           0     136.809 133.662 143.425  0.00  0.00    -0.302 OA
BRANCH  23  24
ATOM     24  C           0     135.812 133.431 142.550  0.00  0.00     0.362 C 
ATOM     25  N           0     134.788 134.303 142.450  0.00  0.00    -0.337 N 
ATOM     26  C           0     133.703 134.052 141.498  0.00  0.00     0.154 C 
ATOM     27  C           0     134.759 135.500 143.294  0.00  0.00     0.154 C 
ATOM     28  O           0     135.835 132.439 141.850  0.00  0.00    -0.238 OA
ENDBRANCH  23  24
ENDBRANCH  22  23
ENDBRANCH   6  22
BRANCH  18  29
ATOM     29  O           0     138.085 129.083 147.578  0.00  0.00    -0.362 OA
ATOM     30  H           0     138.381 129.061 148.498  0.00  0.00     0.213 HD
ENDBRANCH  18  29
BRANCH  18  31
ATOM     31  O           0     138.666 130.585 145.869  0.00  0.00    -0.362 OA
ATOM     32  H           0     139.488 131.083 145.971  0.00  0.00     0.213 HD
ENDBRANCH  18  31
TORSDOF 5
ENDMDL
MODEL 5
REMARK VINA RESULT:      -6.9      2.083      5.986
REMARK  5 active torsions:
REMARK  status: ('A' for Active; 'I' for Inactive)
REMARK    1  A    between atoms: C_6  and  C_7 
REMARK    2  A    between atoms: C_7  and  O_8 
REMARK    3  A    between atoms: O_8  and  C_9 
REMARK       I    between atoms: C_9  and  N_10 
REMARK    4  A    between atoms: C_25  and  O_26 
REMARK    5  A    between atoms: C_25  and  O_27 
ROOT
ATOM      1  N           0     138.128 134.939 142.916  0.00  0.00    -0.235 N 
ATOM      2  H           0     137.608 135.428 142.258  0.00  0.00     0.174 HD
ATOM      3  H           0     139.081 134.813 142.786  0.00  0.00     0.174 HD
ATOM      4  C           0     137.547 134.458 143.979  0.00  0.00     0.672 C 
ATOM      5  N           0     136.192 134.617 144.214  0.00  0.00    -0.218 N 
ATOM      6  C           0     135.503 133.601 145.004  0.00  0.00     0.151 C 
ATOM      7  C           0     136.203 133.306 146.316  0.00  0.00     0.180 C 
ATOM      8  N           0     135.917 134.395 147.274  0.00  0.00    -0.216 N 
ATOM      9  C           0     137.072 134.646 147.974  0.00  0.00     0.670 C 
ATOM     10  N           0     137.114 135.265 149.121  0.00  0.00    -0.235 N 
ATOM     11  H           0     136.294 135.581 149.531  0.00  0.00     0.174 HD
ATOM     12  H           0     137.965 135.409 149.563  0.00  0.00     0.174 HD
ATOM     13  C           0     137.720 133.292 146.222  0.00  0.00     0.217 C 
ATOM     14  N           0     138.177 134.163 147.317  0.00  0.00    -0.191 N 
ATOM     15  N           0     138.236 133.756 144.934  0.00  0.00    -0.183 N 
ATOM     16  C           0     139.622 133.259 144.866  0.00  0.00     0.150 C 
ATOM     17  C           0     139.555 131.851 145.505  0.00  0.00     0.093 C 
ATOM     18  C           0     138.294 131.877 146.405  0.00  0.00     0.209 C 
ATOM     19  H           0     135.712 135.384 143.863  0.00  0.00     0.178 HD
ATOM     20  H           0     135.068 134.850 147.388  0.00  0.00     0.178 HD
ATOM     21  H           0     139.100 134.361 147.539  0.00  0.00     0.180 HD
ENDROOT
BRANCH   6  22
ATOM     22  C           0     135.425 132.309 144.187  0.00  0.00     0.208 C 
BRANCH  22  23
ATOM     23  O           0     135.209 132.633 142.788  0.00  0.00    -0.302 OA
BRANCH  23  24
ATOM     24  C           0     134.048 132.302 142.192  0.00  0.00     0.362 C 
ATOM     25  N           0     133.306 133.252 141.588  0.00  0.00    -0.337 N 
ATOM     26  C           0     132.043 132.893 140.939  0.00  0.00     0.154 C 
ATOM     27  C           0     133.763 134.644 141.581  0.00  0.00     0.154 C 
ATOM     28  O           0     133.669 131.149 142.198  0.00  0.00    -0.238 OA
ENDBRANCH  23  24
ENDBRANCH  22  23
ENDBRANCH   6  22
BRANCH  18  29
ATOM     29  O           0     138.652 131.652 147.771  0.00  0.00    -0.362 OA
ATOM     30  H           0     139.605 131.805 147.838  0.00  0.00     0.213 HD
ENDBRANCH  18  29
BRANCH  18  31
ATOM     31  O           0     137.350 130.897 145.968  0.00  0.00    -0.362 OA
ATOM     32  H           0     137.419 130.853 145.005  0.00  0.00     0.213 HD
ENDBRANCH  18  31
TORSDOF 5
ENDMDL
MODEL 6
REMARK VINA RESULT:      -6.7     10.912     14.019
REMARK  5 active torsions:
REMARK  status: ('A' for Active; 'I' for Inactive)
REMARK    1  A    between atoms: C_6  and  C_7 
REMARK    2  A    between atoms: C_7  and  O_8 
REMARK    3  A    between atoms: O_8  and  C_9 
REMARK       I    between atoms: C_9  and  N_10 
REMARK    4  A    between atoms: C_25  and  O_26 
REMARK    5  A    between atoms: C_25  and  O_27 
ROOT
ATOM      1  N           0     128.853 133.335 131.556  0.00  0.00    -0.235 N 
ATOM      2  H           0     128.085 132.892 131.162  0.00  0.00     0.174 HD
ATOM      3  H           0     129.086 134.237 131.284  0.00  0.00     0.174 HD
ATOM      4  C           0     129.570 132.720 132.455  0.00  0.00     0.672 C 
ATOM      5  N           0     129.276 131.436 132.880  0.00  0.00    -0.218 N 
ATOM      6  C           0     130.371 130.598 133.357  0.00  0.00     0.151 C 
ATOM      7  C           0     131.221 131.286 134.408  0.00  0.00     0.180 C 
ATOM      8  N           0     130.504 131.267 135.701  0.00  0.00    -0.216 N 
ATOM      9  C           0     130.714 132.481 136.309  0.00  0.00     0.670 C 
ATOM     10  N           0     130.552 132.699 137.584  0.00  0.00    -0.235 N 
ATOM     11  H           0     130.265 131.978 138.166  0.00  0.00     0.174 HD
ATOM     12  H           0     130.718 133.582 137.950  0.00  0.00     0.174 HD
ATOM     13  C           0     131.458 132.764 134.143  0.00  0.00     0.217 C 
ATOM     14  N           0     131.117 133.436 135.408  0.00  0.00    -0.191 N 
ATOM     15  N           0     130.667 133.301 133.035  0.00  0.00    -0.183 N 
ATOM     16  C           0     131.337 134.556 132.650  0.00  0.00     0.150 C 
ATOM     17  C           0     132.847 134.241 132.784  0.00  0.00     0.093 C 
ATOM     18  C           0     132.923 133.055 133.777  0.00  0.00     0.209 C 
ATOM     19  H           0     128.364 131.103 132.863  0.00  0.00     0.178 HD
ATOM     20  H           0     129.980 130.532 136.055  0.00  0.00     0.178 HD
ATOM     21  H           0     131.169 134.389 135.578  0.00  0.00     0.180 HD
ENDROOT
BRANCH   6  22
ATOM     22  C           0     131.262 130.227 132.170  0.00  0.00     0.208 C 
BRANCH  22  23
ATOM     23  O           0     131.019 128.845 131.796  0.00  0.00    -0.302 OA
BRANCH  23  24
ATOM     24  C           0     131.605 127.848 132.487  0.00  0.00     0.362 C 
ATOM     25  N           0     131.067 126.612 132.472  0.00  0.00    -0.337 N 
ATOM     26  C           0     131.703 125.527 133.223  0.00  0.00     0.154 C 
ATOM     27  C           0     129.846 126.353 131.705  0.00  0.00     0.154 C 
ATOM     28  O           0     132.617 128.062 133.122  0.00  0.00    -0.238 OA
ENDBRANCH  23  24
ENDBRANCH  22  23
ENDBRANCH   6  22
BRANCH  18  29
ATOM     29  O           0     133.669 133.424 134.939  0.00  0.00    -0.362 OA
ATOM     30  H           0     133.097 133.260 135.702  0.00  0.00     0.213 HD
ENDBRANCH  18  29
BRANCH  18  31
ATOM     31  O           0     133.513 131.915 133.147  0.00  0.00    -0.362 OA
ATOM     32  H           0     132.881 131.190 133.232  0.00  0.00     0.213 HD
ENDBRANCH  18  31
TORSDOF 5
ENDMDL
MODEL 7
REMARK VINA RESULT:      -6.7      2.691      4.271
REMARK  5 active torsions:
REMARK  status: ('A' for Active; 'I' for Inactive)
REMARK    1  A    between atoms: C_6  and  C_7 
REMARK    2  A    between atoms: C_7  and  O_8 
REMARK    3  A    between atoms: O_8  and  C_9 
REMARK       I    between atoms: C_9  and  N_10 
REMARK    4  A    between atoms: C_25  and  O_26 
REMARK    5  A    between atoms: C_25  and  O_27 
ROOT
ATOM      1  N           0     136.233 130.748 143.212  0.00  0.00    -0.235 N 
ATOM      2  H           0     135.555 130.060 143.303  0.00  0.00     0.174 HD
ATOM      3  H           0     137.007 130.597 142.646  0.00  0.00     0.174 HD
ATOM      4  C           0     136.100 131.881 143.845  0.00  0.00     0.672 C 
ATOM      5  N           0     135.012 132.147 144.657  0.00  0.00    -0.218 N 
ATOM      6  C           0     135.192 133.073 145.771  0.00  0.00     0.151 C 
ATOM      7  C           0     135.827 134.382 145.348  0.00  0.00     0.180 C 
ATOM      8  N           0     134.810 135.221 144.677  0.00  0.00    -0.216 N 
ATOM      9  C           0     135.421 135.843 143.616  0.00  0.00     0.670 C 
ATOM     10  N           0     134.957 136.910 143.027  0.00  0.00    -0.235 N 
ATOM     11  H           0     134.131 137.313 143.335  0.00  0.00     0.174 HD
ATOM     12  H           0     135.439 137.300 142.281  0.00  0.00     0.174 HD
ATOM     13  C           0     136.922 134.232 144.304  0.00  0.00     0.217 C 
ATOM     14  N           0     136.580 135.203 143.252  0.00  0.00    -0.191 N 
ATOM     15  N           0     137.032 132.881 143.753  0.00  0.00    -0.183 N 
ATOM     16  C           0     138.371 132.818 143.139  0.00  0.00     0.150 C 
ATOM     17  C           0     139.276 133.614 144.111  0.00  0.00     0.093 C 
ATOM     18  C           0     138.312 134.553 144.879  0.00  0.00     0.209 C 
ATOM     19  H           0     134.152 131.730 144.490  0.00  0.00     0.178 HD
ATOM     20  H           0     133.882 135.315 144.939  0.00  0.00     0.178 HD
ATOM     21  H           0     137.088 135.366 142.442  0.00  0.00     0.180 HD
ENDROOT
BRANCH   6  22
ATOM     22  C           0     136.083 132.411 146.824  0.00  0.00     0.208 C 
BRANCH  22  23
ATOM     23  O           0     135.261 131.642 147.740  0.00  0.00    -0.302 OA
BRANCH  23  24
ATOM     24  C           0     135.148 130.309 147.587  0.00  0.00     0.362 C 
ATOM     25  N           0     134.369 129.597 148.426  0.00  0.00    -0.337 N 
ATOM     26  C           0     134.247 128.147 148.259  0.00  0.00     0.154 C 
ATOM     27  C           0     133.646 130.273 149.505  0.00  0.00     0.154 C 
ATOM     28  O           0     135.748 129.748 146.692  0.00  0.00    -0.238 OA
ENDBRANCH  23  24
ENDBRANCH  22  23
ENDBRANCH   6  22
BRANCH  18  29
ATOM     29  O           0     138.652 135.921 144.640  0.00  0.00    -0.362 OA
ATOM     30  H           0     137.894 136.450 144.924  0.00  0.00     0.213 HD
ENDBRANCH  18  29
BRANCH  18  31
ATOM     31  O           0     138.349 134.266 146.279  0.00  0.00    -0.362 OA
ATOM     32  H           0     137.635 133.640 146.455  0.00  0.00     0.213 HD
ENDBRANCH  18  31
TORSDOF 5
ENDMDL
MODEL 8
REMARK VINA RESULT:      -6.7     11.057     12.902
REMARK  5 active torsions:
REMARK  status: ('A' for Active; 'I' for Inactive)
REMARK    1  A    between atoms: C_6  and  C_7 
REMARK    2  A    between atoms: C_7  and  O_8 
REMARK    3  A    between atoms: O_8  and  C_9 
REMARK       I    between atoms: C_9  and  N_10 
REMARK    4  A    between atoms: C_25  and  O_26 
REMARK    5  A    between atoms: C_25  and  O_27 
ROOT
ATOM      1  N           0     134.168 133.492 132.107  0.00  0.00    -0.235 N 
ATOM      2  H           0     134.151 132.838 131.390  0.00  0.00     0.174 HD
ATOM      3  H           0     135.010 133.887 132.384  0.00  0.00     0.174 HD
ATOM      4  C           0     133.058 133.844 132.693  0.00  0.00     0.672 C 
ATOM      5  N           0     131.832 133.314 132.329  0.00  0.00    -0.218 N 
ATOM      6  C           0     130.785 133.237 133.343  0.00  0.00     0.151 C 
ATOM      7  C           0     130.563 134.555 134.058  0.00  0.00     0.180 C 
ATOM      8  N           0     129.791 135.460 133.179  0.00  0.00    -0.216 N 
ATOM      9  C           0     130.313 136.722 133.324  0.00  0.00     0.670 C 
ATOM     10  N           0     129.682 137.817 133.001  0.00  0.00    -0.235 N 
ATOM     11  H           0     128.787 137.769 132.632  0.00  0.00     0.174 HD
ATOM     12  H           0     130.109 138.678 133.130  0.00  0.00     0.174 HD
ATOM     13  C           0     131.840 135.328 134.347  0.00  0.00     0.217 C 
ATOM     14  N           0     131.580 136.689 133.853  0.00  0.00    -0.191 N 
ATOM     15  N           0     133.031 134.759 133.713  0.00  0.00    -0.183 N 
ATOM     16  C           0     134.174 135.335 134.443  0.00  0.00     0.150 C 
ATOM     17  C           0     133.707 135.371 135.919  0.00  0.00     0.093 C 
ATOM     18  C           0     132.159 135.370 135.850  0.00  0.00     0.209 C 
ATOM     19  H           0     131.673 133.003 131.424  0.00  0.00     0.178 HD
ATOM     20  H           0     129.052 135.208 132.605  0.00  0.00     0.178 HD
ATOM     21  H           0     132.197 137.437 133.895  0.00  0.00     0.180 HD
ENDROOT
BRANCH   6  22
ATOM     22  C           0     131.174 132.177 134.375  0.00  0.00     0.208 C 
BRANCH  22  23
ATOM     23  O           0     131.544 130.949 133.693  0.00  0.00    -0.302 OA
BRANCH  23  24
ATOM     24  C           0     132.767 130.417 133.881  0.00  0.00     0.362 C 
ATOM     25  N           0     133.442 129.897 132.836  0.00  0.00    -0.337 N 
ATOM     26  C           0     134.772 129.318 133.039  0.00  0.00     0.154 C 
ATOM     27  C           0     132.846 129.909 131.499  0.00  0.00     0.154 C 
ATOM     28  O           0     133.262 130.407 134.990  0.00  0.00    -0.238 OA
ENDBRANCH  23  24
ENDBRANCH  22  23
ENDBRANCH   6  22
BRANCH  18  29
ATOM     29  O           0     131.632 136.558 136.444  0.00  0.00    -0.362 OA
ATOM     30  H           0     131.040 136.957 135.791  0.00  0.00     0.213 HD
ENDBRANCH  18  29
BRANCH  18  31
ATOM     31  O           0     131.634 134.211 136.502  0.00  0.00    -0.362 OA
ATOM     32  H           0     132.327 133.883 137.091  0.00  0.00     0.213 HD
ENDBRANCH  18  31
TORSDOF 5
ENDMDL
MODEL 9
REMARK VINA RESULT:      -6.5      3.178      5.323
REMARK  5 active torsions:
REMARK  status: ('A' for Active; 'I' for Inactive)
REMARK    1  A    between atoms: C_6  and  C_7 
REMARK    2  A    between atoms: C_7  and  O_8 
REMARK    3  A    between atoms: O_8  and  C_9 
REMARK       I    between atoms: C_9  and  N_10 
REMARK    4  A    between atoms: C_25  and  O_26 
REMARK    5  A    between atoms: C_25  and  O_27 
ROOT
ATOM      1  N           0     134.334 131.922 144.289  0.00  0.00    -0.235 N 
ATOM      2  H           0     133.529 131.384 144.352  0.00  0.00     0.174 HD
ATOM      3  H           0     134.590 132.316 143.440  0.00  0.00     0.174 HD
ATOM      4  C           0     135.070 132.121 145.347  0.00  0.00     0.672 C 
ATOM      5  N           0     134.745 131.586 146.582  0.00  0.00    -0.218 N 
ATOM      6  C           0     135.828 131.298 147.517  0.00  0.00     0.151 C 
ATOM      7  C           0     136.758 132.479 147.717  0.00  0.00     0.180 C 
ATOM      8  N           0     136.108 133.463 148.609  0.00  0.00    -0.216 N 
ATOM      9  C           0     136.398 134.716 148.125  0.00  0.00     0.670 C 
ATOM     10  N           0     136.311 135.810 148.828  0.00  0.00    -0.235 N 
ATOM     11  H           0     136.025 135.770 149.754  0.00  0.00     0.174 HD
ATOM     12  H           0     136.532 136.664 148.425  0.00  0.00     0.174 HD
ATOM     13  C           0     137.042 133.267 146.449  0.00  0.00     0.217 C 
ATOM     14  N           0     136.794 134.672 146.811  0.00  0.00    -0.191 N 
ATOM     15  N           0     136.219 132.868 145.307  0.00  0.00    -0.183 N 
ATOM     16  C           0     136.919 133.388 144.119  0.00  0.00     0.150 C 
ATOM     17  C           0     138.419 133.175 144.435  0.00  0.00     0.093 C 
ATOM     18  C           0     138.497 133.098 145.981  0.00  0.00     0.209 C 
ATOM     19  H           0     133.821 131.407 146.819  0.00  0.00     0.178 HD
ATOM     20  H           0     135.573 133.261 149.392  0.00  0.00     0.178 HD
ATOM     21  H           0     136.894 135.437 146.223  0.00  0.00     0.180 HD
ENDROOT
BRANCH   6  22
ATOM     22  C           0     136.641 130.117 146.983  0.00  0.00     0.208 C 
BRANCH  22  23
ATOM     23  O           0     136.177 128.890 147.605  0.00  0.00    -0.302 OA
BRANCH  23  24
ATOM     24  C           0     134.867 128.578 147.583  0.00  0.00     0.362 C 
ATOM     25  N           0     134.193 128.418 148.739  0.00  0.00    -0.337 N 
ATOM     26  C           0     132.768 128.079 148.716  0.00  0.00     0.154 C 
ATOM     27  C           0     134.885 128.581 150.020  0.00  0.00     0.154 C 
ATOM     28  O           0     134.293 128.442 146.521  0.00  0.00    -0.238 OA
ENDBRANCH  23  24
ENDBRANCH  22  23
ENDBRANCH   6  22
BRANCH  18  29
ATOM     29  O           0     139.316 134.153 146.492  0.00  0.00    -0.362 OA
ATOM     30  H           0     139.736 134.575 145.729  0.00  0.00     0.213 HD
ENDBRANCH  18  29
BRANCH  18  31
ATOM     31  O           0     139.007 131.827 146.391  0.00  0.00    -0.362 OA
ATOM     32  H           0     139.969 131.911 146.429  0.00  0.00     0.213 HD
ENDBRANCH  18  31
TORSDOF 5
ENDMDL
