MODEL 1
REMARK VINA RESULT:      -7.1      0.000      0.000
REMARK  5 active torsions:
REMARK  status: ('A' for Active; 'I' for Inactive)
REMARK    1  A    between atoms: C_6  and  C_7 
REMARK    2  A    between atoms: C_7  and  O_8 
REMARK    3  A    between atoms: O_8  and  C_9 
REMARK       I    between atoms: C_9  and  N_10 
REMARK    4  A    between atoms: C_24  and  O_25 
REMARK    5  A    between atoms: C_24  and  O_26 
ROOT
ATOM      1  N           0     130.666 131.768 135.392  0.00  0.00    -0.235 N 
ATOM      2  H           0     129.858 132.136 135.782  0.00  0.00     0.174 HD
ATOM      3  H           0     131.533 132.009 135.754  0.00  0.00     0.174 HD
ATOM      4  C           0     130.586 130.943 134.385  0.00  0.00     0.672 C 
ATOM      5  N           0     129.374 130.564 133.840  0.00  0.00    -0.218 N 
ATOM      6  C           0     129.331 130.204 132.425  0.00  0.00     0.151 C 
ATOM      7  C           0     130.383 129.176 132.054  0.00  0.00     0.182 C 
ATOM      8  N           0     129.935 127.840 132.503  0.00  0.00    -0.211 N 
ATOM      9  C           0     128.569 127.316 132.431  0.00  0.00     0.169 C 
ATOM     10  C           0     131.032 127.180 133.000  0.00  0.00     0.672 C 
ATOM     11  N           0     131.103 125.886 133.149  0.00  0.00    -0.235 N 
ATOM     12  H           0     130.350 125.328 132.901  0.00  0.00     0.174 HD
ATOM     13  H           0     131.909 125.483 133.506  0.00  0.00     0.174 HD
ATOM     14  C           0     131.715 129.369 132.759  0.00  0.00     0.217 C 
ATOM     15  N           0     132.045 128.050 133.321  0.00  0.00    -0.191 N 
ATOM     16  N           0     131.702 130.400 133.796  0.00  0.00    -0.183 N 
ATOM     17  C           0     133.105 130.775 134.033  0.00  0.00     0.150 C 
ATOM     18  C           0     133.878 130.438 132.741  0.00  0.00     0.093 C 
ATOM     19  C           0     132.823 129.818 131.785  0.00  0.00     0.209 C 
ATOM     20  H           0     128.570 130.538 134.383  0.00  0.00     0.178 HD
ATOM     21  H           0     132.842 127.831 133.828  0.00  0.00     0.180 HD
ENDROOT
BRANCH   6  22
ATOM     22  C           0     129.558 131.464 131.587  0.00  0.00     0.208 C 
BRANCH  22  23
ATOM     23  O           0     128.277 131.991 131.151  0.00  0.00    -0.302 OA
BRANCH  23  24
ATOM     24  C           0     127.736 133.052 131.780  0.00  0.00     0.358 C 
ATOM     25  N           0     128.499 133.819 132.584  0.00  0.00    -0.346 N 
ATOM     26  H           0     129.437 133.606 132.710  0.00  0.00     0.161 HD
ATOM     27  H           0     128.110 134.583 133.036  0.00  0.00     0.161 HD
ATOM     28  O           0     126.562 133.319 131.621  0.00  0.00    -0.239 OA
ENDBRANCH  23  24
ENDBRANCH  22  23
ENDBRANCH   6  22
BRANCH  19  29
ATOM     29  O           0     133.371 128.704 131.078  0.00  0.00    -0.362 OA
ATOM     30  H           0     133.133 127.911 131.578  0.00  0.00     0.213 HD
ENDBRANCH  19  29
BRANCH  19  31
ATOM     31  O           0     132.323 130.800 130.876  0.00  0.00    -0.362 OA
ATOM     32  H           0     132.954 130.850 130.144  0.00  0.00     0.213 HD
ENDBRANCH  19  31
TORSDOF 5
ENDMDL
MODEL 2
REMARK VINA RESULT:      -6.7      4.440      6.601
REMARK  5 active torsions:
REMARK  status: ('A' for Active; 'I' for Inactive)
REMARK    1  A    between atoms: C_6  and  C_7 
REMARK    2  A    between atoms: C_7  and  O_8 
REMARK    3  A    between atoms: O_8  and  C_9 
REMARK       I    between atoms: C_9  and  N_10 
REMARK    4  A    between atoms: C_24  and  O_25 
REMARK    5  A    between atoms: C_24  and  O_26 
ROOT
ATOM      1  N           0     134.116 132.399 132.931  0.00  0.00    -0.235 N 
ATOM      2  H           0     134.021 131.581 132.419  0.00  0.00     0.174 HD
ATOM      3  H           0     134.997 132.770 133.094  0.00  0.00     0.174 HD
ATOM      4  C           0     133.058 133.004 133.395  0.00  0.00     0.672 C 
ATOM      5  N           0     131.781 132.517 133.184  0.00  0.00    -0.218 N 
ATOM      6  C           0     130.754 132.807 134.180  0.00  0.00     0.151 C 
ATOM      7  C           0     130.671 134.283 134.519  0.00  0.00     0.182 C 
ATOM      8  N           0     129.951 134.989 133.436  0.00  0.00    -0.211 N 
ATOM      9  C           0     128.774 134.498 132.716  0.00  0.00     0.169 C 
ATOM     10  C           0     130.587 136.189 133.230  0.00  0.00     0.672 C 
ATOM     11  N           0     130.045 137.211 132.627  0.00  0.00    -0.235 N 
ATOM     12  H           0     129.136 137.150 132.293  0.00  0.00     0.174 HD
ATOM     13  H           0     130.550 138.031 132.514  0.00  0.00     0.174 HD
ATOM     14  C           0     132.018 134.984 134.577  0.00  0.00     0.217 C 
ATOM     15  N           0     131.864 136.180 133.735  0.00  0.00    -0.191 N 
ATOM     16  N           0     133.142 134.161 134.130  0.00  0.00    -0.183 N 
ATOM     17  C           0     134.359 134.784 134.673  0.00  0.00     0.150 C 
ATOM     18  C           0     133.930 135.584 135.920  0.00  0.00     0.093 C 
ATOM     19  C           0     132.392 135.396 136.015  0.00  0.00     0.209 C 
ATOM     20  H           0     131.572 131.996 132.392  0.00  0.00     0.178 HD
ATOM     21  H           0     132.545 136.849 133.568  0.00  0.00     0.180 HD
ENDROOT
BRANCH   6  22
ATOM     22  C           0     131.070 132.026 135.457  0.00  0.00     0.208 C 
BRANCH  22  23
ATOM     23  O           0     130.184 132.461 136.522  0.00  0.00    -0.302 OA
BRANCH  23  24
ATOM     24  C           0     130.275 131.902 137.744  0.00  0.00     0.358 C 
ATOM     25  N           0     130.872 132.574 138.748  0.00  0.00    -0.346 N 
ATOM     26  H           0     131.236 133.459 138.592  0.00  0.00     0.161 HD
ATOM     27  H           0     130.937 132.172 139.629  0.00  0.00     0.161 HD
ATOM     28  O           0     129.817 130.794 137.941  0.00  0.00    -0.239 OA
ENDBRANCH  23  24
ENDBRANCH  22  23
ENDBRANCH   6  22
BRANCH  19  29
ATOM     29  O           0     131.752 136.620 136.383  0.00  0.00    -0.362 OA
ATOM     30  H           0     132.351 137.077 136.989  0.00  0.00     0.213 HD
ENDBRANCH  19  29
BRANCH  19  31
ATOM     31  O           0     132.064 134.355 136.937  0.00  0.00    -0.362 OA
ATOM     32  H           0     131.378 134.705 137.522  0.00  0.00     0.213 HD
ENDBRANCH  19  31
TORSDOF 5
ENDMDL
MODEL 3
REMARK VINA RESULT:      -6.7     13.219     15.110
REMARK  5 active torsions:
REMARK  status: ('A' for Active; 'I' for Inactive)
REMARK    1  A    between atoms: C_6  and  C_7 
REMARK    2  A    between atoms: C_7  and  O_8 
REMARK    3  A    between atoms: O_8  and  C_9 
REMARK       I    between atoms: C_9  and  N_10 
REMARK    4  A    between atoms: C_24  and  O_25 
REMARK    5  A    between atoms: C_24  and  O_26 
ROOT
ATOM      1  N           0     136.205 135.053 148.074  0.00  0.00    -0.235 N 
ATOM      2  H           0     135.573 135.766 147.891  0.00  0.00     0.174 HD
ATOM      3  H           0     136.688 135.037 148.914  0.00  0.00     0.174 HD
ATOM      4  C           0     136.400 134.113 147.192  0.00  0.00     0.672 C 
ATOM      5  N           0     135.731 134.090 145.982  0.00  0.00    -0.218 N 
ATOM      6  C           0     136.388 133.467 144.836  0.00  0.00     0.151 C 
ATOM      7  C           0     136.899 132.073 145.146  0.00  0.00     0.182 C 
ATOM      8  N           0     135.764 131.125 145.127  0.00  0.00    -0.211 N 
ATOM      9  C           0     134.647 131.131 144.179  0.00  0.00     0.169 C 
ATOM     10  C           0     135.947 130.239 146.161  0.00  0.00     0.672 C 
ATOM     11  N           0     135.365 129.075 146.239  0.00  0.00    -0.235 N 
ATOM     12  H           0     134.758 128.788 145.538  0.00  0.00     0.174 HD
ATOM     13  H           0     135.538 128.496 146.997  0.00  0.00     0.174 HD
ATOM     14  C           0     137.479 131.919 146.541  0.00  0.00     0.217 C 
ATOM     15  N           0     136.819 130.730 147.101  0.00  0.00    -0.191 N 
ATOM     16  N           0     137.289 133.087 147.402  0.00  0.00    -0.183 N 
ATOM     17  C           0     138.270 132.970 148.491  0.00  0.00     0.150 C 
ATOM     18  C           0     139.425 132.099 147.955  0.00  0.00     0.093 C 
ATOM     19  C           0     139.006 131.709 146.512  0.00  0.00     0.209 C 
ATOM     20  H           0     134.845 134.478 145.897  0.00  0.00     0.178 HD
ATOM     21  H           0     136.975 130.355 147.981  0.00  0.00     0.180 HD
ENDROOT
BRANCH   6  22
ATOM     22  C           0     137.569 134.341 144.409  0.00  0.00     0.208 C 
BRANCH  22  23
ATOM     23  O           0     137.689 134.317 142.962  0.00  0.00    -0.302 OA
BRANCH  23  24
ATOM     24  C           0     138.893 134.122 142.390  0.00  0.00     0.358 C 
ATOM     25  N           0     139.371 135.018 141.504  0.00  0.00    -0.346 N 
ATOM     26  H           0     138.848 135.803 141.278  0.00  0.00     0.161 HD
ATOM     27  H           0     140.238 134.878 141.093  0.00  0.00     0.161 HD
ATOM     28  O           0     139.549 133.139 142.675  0.00  0.00    -0.239 OA
ENDBRANCH  23  24
ENDBRANCH  22  23
ENDBRANCH   6  22
BRANCH  19  29
ATOM     29  O           0     139.334 130.346 146.238  0.00  0.00    -0.362 OA
ATOM     30  H           0     140.178 130.350 145.766  0.00  0.00     0.213 HD
ENDBRANCH  19  29
BRANCH  19  31
ATOM     31  O           0     139.614 132.580 145.555  0.00  0.00    -0.362 OA
ATOM     32  H           0     138.946 133.236 145.311  0.00  0.00     0.213 HD
ENDBRANCH  19  31
TORSDOF 5
ENDMDL
MODEL 4
REMARK VINA RESULT:      -6.6     14.500     16.097
REMARK  5 active torsions:
REMARK  status: ('A' for Active; 'I' for Inactive)
REMARK    1  A    between atoms: C_6  and  C_7 
REMARK    2  A    between atoms: C_7  and  O_8 
REMARK    3  A    between atoms: O_8  and  C_9 
REMARK       I    between atoms: C_9  and  N_10 
REMARK    4  A    between atoms: C_24  and  O_25 
REMARK    5  A    between atoms: C_24  and  O_26 
ROOT
ATOM      1  N           0     134.136 131.907 149.472  0.00  0.00    -0.235 N 
ATOM      2  H           0     133.649 131.574 150.241  0.00  0.00     0.174 HD
ATOM      3  H           0     134.019 132.826 149.184  0.00  0.00     0.174 HD
ATOM      4  C           0     134.953 131.121 148.827  0.00  0.00     0.672 C 
ATOM      5  N           0     135.157 129.806 149.202  0.00  0.00    -0.218 N 
ATOM      6  C           0     135.524 128.839 148.172  0.00  0.00     0.151 C 
ATOM      7  C           0     136.699 129.302 147.332  0.00  0.00     0.182 C 
ATOM      8  N           0     137.950 129.102 148.097  0.00  0.00    -0.211 N 
ATOM      9  C           0     138.269 127.955 148.949  0.00  0.00     0.169 C 
ATOM     10  C           0     138.757 130.188 147.861  0.00  0.00     0.672 C 
ATOM     11  N           0     140.046 130.201 148.064  0.00  0.00    -0.235 N 
ATOM     12  H           0     140.491 129.408 148.401  0.00  0.00     0.174 HD
ATOM     13  H           0     140.558 131.002 147.877  0.00  0.00     0.174 HD
ATOM     14  C           0     136.695 130.789 147.023  0.00  0.00     0.217 C 
ATOM     15  N           0     138.041 131.259 147.387  0.00  0.00    -0.191 N 
ATOM     16  N           0     135.660 131.545 147.729  0.00  0.00    -0.183 N 
ATOM     17  C           0     135.492 132.810 146.996  0.00  0.00     0.150 C 
ATOM     18  C           0     135.954 132.548 145.548  0.00  0.00     0.093 C 
ATOM     19  C           0     136.425 131.068 145.531  0.00  0.00     0.209 C 
ATOM     20  H           0     135.059 129.532 150.128  0.00  0.00     0.178 HD
ATOM     21  H           0     138.367 132.168 147.303  0.00  0.00     0.180 HD
ENDROOT
BRANCH   6  22
ATOM     22  C           0     134.322 128.614 147.253  0.00  0.00     0.208 C 
BRANCH  22  23
ATOM     23  O           0     133.202 128.120 148.035  0.00  0.00    -0.302 OA
BRANCH  23  24
ATOM     24  C           0     132.279 127.325 147.461  0.00  0.00     0.358 C 
ATOM     25  N           0     132.629 126.106 147.007  0.00  0.00    -0.346 N 
ATOM     26  H           0     133.546 125.800 147.093  0.00  0.00     0.161 HD
ATOM     27  H           0     131.964 125.533 146.594  0.00  0.00     0.161 HD
ATOM     28  O           0     131.130 127.707 147.353  0.00  0.00    -0.239 OA
ENDBRANCH  23  24
ENDBRANCH  22  23
ENDBRANCH   6  22
BRANCH  19  29
ATOM     29  O           0     137.616 130.923 144.756  0.00  0.00    -0.362 OA
ATOM     30  H           0     137.786 129.974 144.679  0.00  0.00     0.213 HD
ENDBRANCH  19  29
BRANCH  19  31
ATOM     31  O           0     135.391 130.212 145.040  0.00  0.00    -0.362 OA
ATOM     32  H           0     135.705 129.304 145.151  0.00  0.00     0.213 HD
ENDBRANCH  19  31
TORSDOF 5
ENDMDL
MODEL 5
REMARK VINA RESULT:      -6.5     13.691     15.789
REMARK  5 active torsions:
REMARK  status: ('A' for Active; 'I' for Inactive)
REMARK    1  A    between atoms: C_6  and  C_7 
REMARK    2  A    between atoms: C_7  and  O_8 
REMARK    3  A    between atoms: O_8  and  C_9 
REMARK       I    between atoms: C_9  and  N_10 
REMARK    4  A    between atoms: C_24  and  O_25 
REMARK    5  A    between atoms: C_24  and  O_26 
ROOT
ATOM      1  N           0     136.026 133.979 148.308  0.00  0.00    -0.235 N 
ATOM      2  H           0     136.471 134.839 148.352  0.00  0.00     0.174 HD
ATOM      3  H           0     135.409 133.717 149.010  0.00  0.00     0.174 HD
ATOM      4  C           0     136.250 133.178 147.304  0.00  0.00     0.672 C 
ATOM      5  N           0     137.114 133.510 146.278  0.00  0.00    -0.218 N 
ATOM      6  C           0     137.804 132.433 145.574  0.00  0.00     0.151 C 
ATOM      7  C           0     136.855 131.352 145.092  0.00  0.00     0.182 C 
ATOM      8  N           0     136.160 131.827 143.875  0.00  0.00    -0.211 N 
ATOM      9  C           0     136.756 132.598 142.783  0.00  0.00     0.169 C 
ATOM     10  C           0     134.853 131.412 143.957  0.00  0.00     0.672 C 
ATOM     11  N           0     134.046 131.328 142.936  0.00  0.00    -0.235 N 
ATOM     12  H           0     134.360 131.566 142.050  0.00  0.00     0.174 HD
ATOM     13  H           0     133.133 131.027 143.062  0.00  0.00     0.174 HD
ATOM     14  C           0     135.725 131.040 146.058  0.00  0.00     0.217 C 
ATOM     15  N           0     134.500 131.096 145.246  0.00  0.00    -0.191 N 
ATOM     16  N           0     135.647 131.948 147.202  0.00  0.00    -0.183 N 
ATOM     17  C           0     134.851 131.260 148.231  0.00  0.00     0.150 C 
ATOM     18  C           0     134.985 129.748 147.956  0.00  0.00     0.093 C 
ATOM     19  C           0     135.876 129.640 146.688  0.00  0.00     0.209 C 
ATOM     20  H           0     137.259 134.438 146.031  0.00  0.00     0.178 HD
ATOM     21  H           0     133.599 130.936 145.565  0.00  0.00     0.180 HD
ENDROOT
BRANCH   6  22
ATOM     22  C           0     138.828 131.801 146.520  0.00  0.00     0.208 C 
BRANCH  22  23
ATOM     23  O           0     139.803 132.802 146.915  0.00  0.00    -0.302 OA
BRANCH  23  24
ATOM     24  C           0     139.968 133.104 148.217  0.00  0.00     0.358 C 
ATOM     25  N           0     140.965 132.531 148.920  0.00  0.00    -0.346 N 
ATOM     26  H           0     141.564 131.902 148.488  0.00  0.00     0.161 HD
ATOM     27  H           0     141.085 132.750 149.857  0.00  0.00     0.161 HD
ATOM     28  O           0     139.219 133.894 148.757  0.00  0.00    -0.239 OA
ENDBRANCH  23  24
ENDBRANCH  22  23
ENDBRANCH   6  22
BRANCH  19  29
ATOM     29  O           0     135.389 128.625 145.810  0.00  0.00    -0.362 OA
ATOM     30  H           0     134.825 128.044 146.339  0.00  0.00     0.213 HD
ENDBRANCH  19  29
BRANCH  19  31
ATOM     31  O           0     137.238 129.395 147.045  0.00  0.00    -0.362 OA
ATOM     32  H           0     137.528 130.150 147.574  0.00  0.00     0.213 HD
ENDBRANCH  19  31
TORSDOF 5
ENDMDL
MODEL 6
REMARK VINA RESULT:      -6.5      4.205      6.773
REMARK  5 active torsions:
REMARK  status: ('A' for Active; 'I' for Inactive)
REMARK    1  A    between atoms: C_6  and  C_7 
REMARK    2  A    between atoms: C_7  and  O_8 
REMARK    3  A    between atoms: O_8  and  C_9 
REMARK       I    between atoms: C_9  and  N_10 
REMARK    4  A    between atoms: C_24  and  O_25 
REMARK    5  A    between atoms: C_24  and  O_26 
ROOT
ATOM      1  N           0     134.714 132.970 132.832  0.00  0.00    -0.235 N 
ATOM      2  H           0     134.739 132.286 132.146  0.00  0.00     0.174 HD
ATOM      3  H           0     135.535 133.253 133.265  0.00  0.00     0.174 HD
ATOM      4  C           0     133.578 133.515 133.169  0.00  0.00     0.672 C 
ATOM      5  N           0     132.384 133.149 132.576  0.00  0.00    -0.218 N 
ATOM      6  C           0     131.155 133.272 133.356  0.00  0.00     0.151 C 
ATOM      7  C           0     130.998 134.645 133.982  0.00  0.00     0.182 C 
ATOM      8  N           0     130.545 135.600 132.946  0.00  0.00    -0.211 N 
ATOM      9  C           0     129.565 135.332 131.892  0.00  0.00     0.169 C 
ATOM     10  C           0     131.212 136.783 133.154  0.00  0.00     0.672 C 
ATOM     11  N           0     130.823 137.935 132.684  0.00  0.00    -0.235 N 
ATOM     12  H           0     130.015 137.992 132.150  0.00  0.00     0.174 HD
ATOM     13  H           0     131.340 138.734 132.868  0.00  0.00     0.174 HD
ATOM     14  C           0     132.295 135.248 134.491  0.00  0.00     0.217 C 
ATOM     15  N           0     132.339 136.603 133.918  0.00  0.00    -0.191 N 
ATOM     16  N           0     133.492 134.484 134.139  0.00  0.00    -0.183 N 
ATOM     17  C           0     134.553 134.915 135.062  0.00  0.00     0.150 C 
ATOM     18  C           0     133.849 135.453 136.325  0.00  0.00     0.093 C 
ATOM     19  C           0     132.329 135.327 136.031  0.00  0.00     0.209 C 
ATOM     20  H           0     132.362 132.819 131.664  0.00  0.00     0.178 HD
ATOM     21  H           0     133.040 137.257 134.058  0.00  0.00     0.180 HD
ENDROOT
BRANCH   6  22
ATOM     22  C           0     131.170 132.223 134.470  0.00  0.00     0.208 C 
BRANCH  22  23
ATOM     23  O           0     131.177 130.895 133.884  0.00  0.00    -0.302 OA
BRANCH  23  24
ATOM     24  C           0     132.276 130.122 133.980  0.00  0.00     0.358 C 
ATOM     25  N           0     132.271 128.877 133.464  0.00  0.00    -0.346 N 
ATOM     26  H           0     131.476 128.537 133.024  0.00  0.00     0.161 HD
ATOM     27  H           0     133.063 128.321 133.533  0.00  0.00     0.161 HD
ATOM     28  O           0     133.272 130.548 134.530  0.00  0.00    -0.239 OA
ENDBRANCH  23  24
ENDBRANCH  22  23
ENDBRANCH   6  22
BRANCH  19  29
ATOM     29  O           0     131.623 136.475 136.504  0.00  0.00    -0.362 OA
ATOM     30  H           0     130.688 136.330 136.305  0.00  0.00     0.213 HD
ENDBRANCH  19  29
BRANCH  19  31
ATOM     31  O           0     131.799 134.131 136.606  0.00  0.00    -0.362 OA
ATOM     32  H           0     132.396 133.412 136.355  0.00  0.00     0.213 HD
ENDBRANCH  19  31
TORSDOF 5
ENDMDL
MODEL 7
REMARK VINA RESULT:      -6.5     12.504     14.345
REMARK  5 active torsions:
REMARK  status: ('A' for Active; 'I' for Inactive)
REMARK    1  A    between atoms: C_6  and  C_7 
REMARK    2  A    between atoms: C_7  and  O_8 
REMARK    3  A    between atoms: O_8  and  C_9 
REMARK       I    between atoms: C_9  and  N_10 
REMARK    4  A    between atoms: C_24  and  O_25 
REMARK    5  A    between atoms: C_24  and  O_26 
ROOT
ATOM      1  N           0     134.401 130.681 144.428  0.00  0.00    -0.235 N 
ATOM      2  H           0     134.040 130.496 143.548  0.00  0.00     0.174 HD
ATOM      3  H           0     134.076 130.189 145.199  0.00  0.00     0.174 HD
ATOM      4  C           0     135.327 131.587 144.577  0.00  0.00     0.672 C 
ATOM      5  N           0     135.826 132.309 143.509  0.00  0.00    -0.218 N 
ATOM      6  C           0     136.330 133.657 143.756  0.00  0.00     0.151 C 
ATOM      7  C           0     137.330 133.704 144.896  0.00  0.00     0.182 C 
ATOM      8  N           0     138.636 133.204 144.415  0.00  0.00    -0.211 N 
ATOM      9  C           0     139.240 133.478 143.109  0.00  0.00     0.169 C 
ATOM     10  C           0     139.181 132.437 145.416  0.00  0.00     0.672 C 
ATOM     11  N           0     140.446 132.135 145.501  0.00  0.00    -0.235 N 
ATOM     12  H           0     141.068 132.459 144.831  0.00  0.00     0.174 HD
ATOM     13  H           0     140.766 131.588 146.235  0.00  0.00     0.174 HD
ATOM     14  C           0     136.993 132.784 146.057  0.00  0.00     0.217 C 
ATOM     15  N           0     138.228 132.027 146.315  0.00  0.00    -0.191 N 
ATOM     16  N           0     135.864 131.889 145.805  0.00  0.00    -0.183 N 
ATOM     17  C           0     135.390 131.431 147.120  0.00  0.00     0.150 C 
ATOM     18  C           0     135.813 132.506 148.142  0.00  0.00     0.093 C 
ATOM     19  C           0     136.584 133.572 147.318  0.00  0.00     0.209 C 
ATOM     20  H           0     135.842 131.929 142.615  0.00  0.00     0.178 HD
ATOM     21  H           0     138.349 131.356 147.004  0.00  0.00     0.180 HD
ENDROOT
BRANCH   6  22
ATOM     22  C           0     135.151 134.570 144.099  0.00  0.00     0.208 C 
BRANCH  22  23
ATOM     23  O           0     134.620 135.152 142.879  0.00  0.00    -0.302 OA
BRANCH  23  24
ATOM     24  C           0     133.880 134.399 142.041  0.00  0.00     0.358 C 
ATOM     25  N           0     133.935 134.620 140.713  0.00  0.00    -0.346 N 
ATOM     26  H           0     134.506 135.320 140.360  0.00  0.00     0.161 HD
ATOM     27  H           0     133.404 134.078 140.109  0.00  0.00     0.161 HD
ATOM     28  O           0     133.166 133.522 142.483  0.00  0.00    -0.239 OA
ENDBRANCH  23  24
ENDBRANCH  22  23
ENDBRANCH   6  22
BRANCH  19  29
ATOM     29  O           0     137.732 134.033 148.032  0.00  0.00    -0.362 OA
ATOM     30  H           0     138.459 134.076 147.396  0.00  0.00     0.213 HD
ENDBRANCH  19  29
BRANCH  19  31
ATOM     31  O           0     135.729 134.662 146.972  0.00  0.00    -0.362 OA
ATOM     32  H           0     135.719 134.714 146.006  0.00  0.00     0.213 HD
ENDBRANCH  19  31
TORSDOF 5
ENDMDL
MODEL 8
REMARK VINA RESULT:      -6.3     13.184     15.024
REMARK  5 active torsions:
REMARK  status: ('A' for Active; 'I' for Inactive)
REMARK    1  A    between atoms: C_6  and  C_7 
REMARK    2  A    between atoms: C_7  and  O_8 
REMARK    3  A    between atoms: O_8  and  C_9 
REMARK       I    between atoms: C_9  and  N_10 
REMARK    4  A    between atoms: C_24  and  O_25 
REMARK    5  A    between atoms: C_24  and  O_26 
ROOT
ATOM      1  N           0     135.474 130.857 143.176  0.00  0.00    -0.235 N 
ATOM      2  H           0     135.575 131.173 142.264  0.00  0.00     0.174 HD
ATOM      3  H           0     134.782 130.213 143.392  0.00  0.00     0.174 HD
ATOM      4  C           0     136.274 131.293 144.108  0.00  0.00     0.672 C 
ATOM      5  N           0     137.279 132.206 143.847  0.00  0.00    -0.218 N 
ATOM      6  C           0     137.694 133.108 144.918  0.00  0.00     0.151 C 
ATOM      7  C           0     138.016 132.373 146.205  0.00  0.00     0.182 C 
ATOM      8  N           0     139.352 131.749 146.086  0.00  0.00    -0.211 N 
ATOM      9  C           0     140.531 132.344 145.454  0.00  0.00     0.169 C 
ATOM     10  C           0     139.285 130.511 146.677  0.00  0.00     0.672 C 
ATOM     11  N           0     140.325 129.834 147.079  0.00  0.00    -0.235 N 
ATOM     12  H           0     141.216 130.203 146.968  0.00  0.00     0.174 HD
ATOM     13  H           0     140.208 128.963 147.489  0.00  0.00     0.174 HD
ATOM     14  C           0     137.093 131.203 146.500  0.00  0.00     0.217 C 
ATOM     15  N           0     137.989 130.073 146.792  0.00  0.00    -0.191 N 
ATOM     16  N           0     136.168 130.880 145.414  0.00  0.00    -0.183 N 
ATOM     17  C           0     135.083 130.084 146.009  0.00  0.00     0.150 C 
ATOM     18  C           0     135.032 130.454 147.506  0.00  0.00     0.093 C 
ATOM     19  C           0     136.181 131.478 147.713  0.00  0.00     0.209 C 
ATOM     20  H           0     137.699 132.247 142.973  0.00  0.00     0.178 HD
ATOM     21  H           0     137.712 129.174 147.027  0.00  0.00     0.180 HD
ENDROOT
BRANCH   6  22
ATOM     22  C           0     136.566 134.105 145.190  0.00  0.00     0.208 C 
BRANCH  22  23
ATOM     23  O           0     136.426 134.998 144.053  0.00  0.00    -0.302 OA
BRANCH  23  24
ATOM     24  C           0     135.254 135.070 143.394  0.00  0.00     0.358 C 
ATOM     25  N           0     134.785 136.265 142.984  0.00  0.00    -0.346 N 
ATOM     26  H           0     135.290 137.073 143.164  0.00  0.00     0.161 HD
ATOM     27  H           0     133.941 136.317 142.509  0.00  0.00     0.161 HD
ATOM     28  O           0     134.621 134.058 143.168  0.00  0.00    -0.239 OA
ENDBRANCH  23  24
ENDBRANCH  22  23
ENDBRANCH   6  22
BRANCH  19  29
ATOM     29  O           0     136.868 131.231 148.941  0.00  0.00    -0.362 OA
ATOM     30  H           0     137.658 130.718 148.721  0.00  0.00     0.213 HD
ENDBRANCH  19  29
BRANCH  19  31
ATOM     31  O           0     135.681 132.816 147.670  0.00  0.00    -0.362 OA
ATOM     32  H           0     134.879 132.798 147.130  0.00  0.00     0.213 HD
ENDBRANCH  19  31
TORSDOF 5
ENDMDL
MODEL 9
REMARK VINA RESULT:      -6.3     14.022     15.908
REMARK  5 active torsions:
REMARK  status: ('A' for Active; 'I' for Inactive)
REMARK    1  A    between atoms: C_6  and  C_7 
REMARK    2  A    between atoms: C_7  and  O_8 
REMARK    3  A    between atoms: O_8  and  C_9 
REMARK       I    between atoms: C_9  and  N_10 
REMARK    4  A    between atoms: C_24  and  O_25 
REMARK    5  A    between atoms: C_24  and  O_26 
ROOT
ATOM      1  N           0     138.723 129.425 147.744  0.00  0.00    -0.235 N 
ATOM      2  H           0     138.725 128.461 147.644  0.00  0.00     0.174 HD
ATOM      3  H           0     139.458 129.867 148.198  0.00  0.00     0.174 HD
ATOM      4  C           0     137.737 130.129 147.262  0.00  0.00     0.672 C 
ATOM      5  N           0     136.672 129.545 146.601  0.00  0.00    -0.218 N 
ATOM      6  C           0     135.373 130.211 146.653  0.00  0.00     0.151 C 
ATOM      7  C           0     135.454 131.675 146.265  0.00  0.00     0.182 C 
ATOM      8  N           0     135.554 131.781 144.793  0.00  0.00    -0.211 N 
ATOM      9  C           0     134.828 130.967 143.816  0.00  0.00     0.169 C 
ATOM     10  C           0     136.450 132.783 144.510  0.00  0.00     0.672 C 
ATOM     11  N           0     136.524 133.396 143.361  0.00  0.00    -0.235 N 
ATOM     12  H           0     135.920 133.151 142.642  0.00  0.00     0.174 HD
ATOM     13  H           0     137.181 134.096 143.226  0.00  0.00     0.174 HD
ATOM     14  C           0     136.701 132.383 146.766  0.00  0.00     0.217 C 
ATOM     15  N           0     137.258 133.059 145.584  0.00  0.00    -0.191 N 
ATOM     16  N           0     137.687 131.496 147.384  0.00  0.00    -0.183 N 
ATOM     17  C           0     138.565 132.349 148.201  0.00  0.00     0.150 C 
ATOM     18  C           0     137.750 133.608 148.560  0.00  0.00     0.093 C 
ATOM     19  C           0     136.376 133.419 147.862  0.00  0.00     0.209 C 
ATOM     20  H           0     136.785 128.713 146.114  0.00  0.00     0.178 HD
ATOM     21  H           0     138.057 133.608 145.568  0.00  0.00     0.180 HD
ENDROOT
BRANCH   6  22
ATOM     22  C           0     134.822 130.109 148.077  0.00  0.00     0.208 C 
BRANCH  22  23
ATOM     23  O           0     134.546 128.718 148.390  0.00  0.00    -0.302 OA
BRANCH  23  24
ATOM     24  C           0     133.387 128.157 147.995  0.00  0.00     0.358 C 
ATOM     25  N           0     132.213 128.686 148.392  0.00  0.00    -0.346 N 
ATOM     26  H           0     132.202 129.470 148.963  0.00  0.00     0.161 HD
ATOM     27  H           0     131.378 128.282 148.106  0.00  0.00     0.161 HD
ATOM     28  O           0     133.401 127.176 147.278  0.00  0.00    -0.239 OA
ENDBRANCH  23  24
ENDBRANCH  22  23
ENDBRANCH   6  22
BRANCH  19  29
ATOM     29  O           0     135.922 134.647 147.291  0.00  0.00    -0.362 OA
ATOM     30  H           0     135.014 134.499 146.993  0.00  0.00     0.213 HD
ENDBRANCH  19  29
BRANCH  19  31
ATOM     31  O           0     135.410 132.895 148.775  0.00  0.00    -0.362 OA
ATOM     32  H           0     134.872 132.262 148.280  0.00  0.00     0.213 HD
ENDBRANCH  19  31
TORSDOF 5
ENDMDL
