# created with PyMOL 2.3.4
@<TRIPOS>MOLECULE
ligand_out_0001
32 34 1                 
SMALL
USER_CHARGES
@<TRIPOS>ATOM
1	   N	130.666	131.768	135.392	N.3	1	UNK0	-0.235	
2	   N	129.374	130.564	133.840	N.3	1	UNK0	-0.218	
3	   N	129.935	127.840	132.503	N.3	1	UNK0	-0.211	
4	   N	131.103	125.886	133.149	N.3	1	UNK0	-0.235	
5	   N	132.045	128.050	133.321	N.3	1	UNK0	-0.191	
6	   N	131.702	130.400	133.796	N.3	1	UNK0	-0.183	
7	   N	128.499	133.819	132.584	N.pl3	1	UNK0	-0.346	
8	   C	130.586	130.943	134.385	C.3	1	UNK0	0.672	
9	   C	129.331	130.204	132.425	C.3	1	UNK0	0.151	
10	   C	130.383	129.176	132.054	C.3	1	UNK0	0.182	
11	   C	128.569	127.316	132.431	C.3	1	UNK0	0.169	
12	   C	131.032	127.180	133.000	C.3	1	UNK0	0.672	
13	   C	131.715	129.369	132.759	C.3	1	UNK0	0.217	
14	   C	133.105	130.775	134.033	C.3	1	UNK0	0.150	
15	   C	133.878	130.438	132.741	C.3	1	UNK0	0.093	
16	   C	132.823	129.818	131.785	C.3	1	UNK0	0.209	
17	   C	129.558	131.464	131.587	C.2	1	UNK0	0.208	
18	   C	127.736	133.052	131.780	C.2	1	UNK0	0.358	
19	   O	128.277	131.991	131.151	O.2	1	UNK0	-0.302	
20	   O	126.562	133.319	131.621	O.co2	1	UNK0	-0.239	
21	   O	133.371	128.704	131.078	O.2	1	UNK0	-0.362	
22	   O	132.323	130.800	130.876	O.2	1	UNK0	-0.362	
23	   H	129.858	132.136	135.782	 H	1	UNK0	0.174	
24	   H	131.533	132.009	135.754	 H	1	UNK0	0.174	
25	   H	130.350	125.328	132.901	 H	1	UNK0	0.174	
26	   H	131.909	125.483	133.506	 H	1	UNK0	0.174	
27	   H	128.570	130.538	134.383	 H	1	UNK0	0.178	
28	   H	132.842	127.831	133.828	 H	1	UNK0	0.180	
29	   H	129.437	133.606	132.710	 H	1	UNK0	0.161	
30	   H	128.110	134.583	133.036	 H	1	UNK0	0.161	
31	   H	133.133	127.911	131.578	 H	1	UNK0	0.213	
32	   H	132.954	130.850	130.144	 H	1	UNK0	0.213	
@<TRIPOS>BOND
1 1 8 1
2 1 23 1
3 1 24 1
4 2 9 1
5 2 27 1
6 3 11 1
7 3 12 1
8 4 25 1
9 4 26 1
10 5 28 1
11 6 14 1
12 7 29 1
13 7 30 1
14 2 8 1
15 6 8 1
16 9 10 1
17 9 17 1
18 3 10 1
19 10 13 1
20 4 12 1
21 5 12 1
22 5 13 1
23 6 13 1
24 13 16 1
25 14 15 1
26 15 16 1
27 16 21 2
28 16 22 2
29 17 19 2
30 7 18 1
31 18 20 2
32 18 19 2
33 21 31 1
34 22 32 1
@<TRIPOS>SUBSTRUCTURE
1	UNK0	1	GROUP	1 ****	UNK
