# created with PyMOL 2.3.4
@<TRIPOS>MOLECULE
ligand_out_0001
68 72 1                 
SMALL
USER_CHARGES
@<TRIPOS>ATOM
1	   N	136.138	135.345	149.058	N.3	1	UNK0	-0.191	
2	   N	134.150	132.602	150.902	N.3	1	UNK0	-0.191	
3	   N	137.833	130.112	151.050	N.3	1	UNK0	-0.191	
4	   N	132.931	134.085	140.400	N.3	1	UNK0	-0.385	
5	   N	133.299	135.293	134.580	N.pl3	1	UNK0	-0.361	
6	   N	128.963	133.504	132.447	N.pl3	1	UNK0	-0.337	
7	   N	129.165	130.147	133.692	N.3	1	UNK0	-0.218	
8	   N	130.210	131.439	135.359	N.3	1	UNK0	-0.235	
9	   N	131.486	130.113	133.913	N.3	1	UNK0	-0.183	
10	   N	132.023	127.784	133.535	N.3	1	UNK0	-0.191	
11	   N	130.025	127.436	132.510	N.3	1	UNK0	-0.216	
12	   N	131.224	125.568	133.329	N.3	1	UNK0	-0.235	
13	   C	136.821	134.034	145.493	C.3	1	UNK0	0.012	
14	   C	136.708	133.003	146.432	C.3	1	UNK0	-0.000	
15	   C	136.830	131.516	146.179	C.3	1	UNK0	0.089	
16	   C	135.753	131.057	145.194	C.3	1	UNK0	0.051	
17	   C	138.221	131.188	145.630	C.3	1	UNK0	0.051	
18	   C	136.465	133.131	147.799	C.3	1	UNK0	0.089	
19	   C	136.282	134.366	148.502	C.3	1	UNK0	0.103	
20	   C	136.424	131.841	148.377	C.2	1	UNK0	0.123	
21	   C	136.199	131.590	149.731	C.3	1	UNK0	0.159	
22	   C	135.057	132.154	150.384	C.3	1	UNK0	0.113	
23	   C	137.110	130.765	150.467	C.3	1	UNK0	0.113	
24	   C	137.067	133.741	144.188	C.3	1	UNK0	0.012	
25	   C	135.989	133.830	143.200	C.3	1	UNK0	-0.036	
26	   C	135.891	132.877	142.176	C.3	1	UNK0	0.013	
27	   C	134.884	132.965	141.258	C.3	1	UNK0	0.030	
28	   C	133.955	134.000	141.338	C.3	1	UNK0	0.029	
29	   C	134.050	134.952	142.350	C.3	1	UNK0	0.030	
30	   C	135.050	134.869	143.276	C.3	1	UNK0	0.013	
31	   C	131.881	133.065	140.368	C.3	1	UNK0	0.149	
32	   C	132.903	135.195	139.444	C.3	1	UNK0	0.123	
33	   C	133.388	134.704	138.079	C.3	1	UNK0	0.029	
34	   C	132.726	135.532	136.975	C.3	1	UNK0	0.104	
35	   C	132.744	134.755	135.684	C.2	1	UNK0	0.217	
36	   C	133.316	134.537	133.326	C.3	1	UNK0	0.122	
37	   C	132.724	135.395	132.205	C.3	1	UNK0	0.020	
38	   C	131.675	134.584	131.441	C.3	1	UNK0	0.002	
39	   C	130.405	135.419	131.277	C.3	1	UNK0	0.002	
40	   C	129.846	135.775	132.656	C.3	1	UNK0	0.020	
41	   C	128.688	134.835	132.996	C.3	1	UNK0	0.125	
42	   C	128.045	132.892	131.674	C.2	1	UNK0	0.360	
43	   C	129.562	131.013	131.455	C.2	1	UNK0	0.208	
44	   C	129.306	129.759	132.293	C.3	1	UNK0	0.151	
45	   C	130.287	130.599	134.365	C.3	1	UNK0	0.672	
46	   C	131.683	129.070	132.904	C.3	1	UNK0	0.217	
47	   C	132.841	130.556	134.287	C.3	1	UNK0	0.150	
48	   C	130.446	128.784	132.069	C.3	1	UNK0	0.180	
49	   C	132.859	129.557	132.040	C.3	1	UNK0	0.209	
50	   C	131.098	126.851	133.136	C.3	1	UNK0	0.670	
51	   C	133.629	130.544	132.955	C.3	1	UNK0	0.093	
52	   O	136.638	130.889	147.450	O.2	1	UNK0	-0.332	
53	   O	132.258	133.644	135.639	O.2	1	UNK0	-0.274	
54	   O	126.990	133.443	131.431	O.co2	1	UNK0	-0.239	
55	   O	128.298	131.670	131.168	O.2	1	UNK0	-0.302	
56	   O	133.700	128.461	131.673	O.2	1	UNK0	-0.362	
57	   O	132.377	130.228	130.876	O.2	1	UNK0	-0.362	
58	   H	133.687	136.181	134.617	 H	1	UNK0	0.162	
59	   H	129.806	133.064	132.641	 H	1	UNK0	0.164	
60	   H	128.307	130.090	134.141	 H	1	UNK0	0.178	
61	   H	129.344	131.767	135.650	 H	1	UNK0	0.174	
62	   H	131.017	131.732	135.811	 H	1	UNK0	0.174	
63	   H	129.150	127.038	132.380	 H	1	UNK0	0.178	
64	   H	130.532	124.962	133.021	 H	1	UNK0	0.174	
65	   H	132.009	125.219	133.779	 H	1	UNK0	0.174	
66	   H	132.773	127.623	134.128	 H	1	UNK0	0.180	
67	   H	133.140	127.673	131.655	 H	1	UNK0	0.213	
68	   H	133.105	130.770	130.543	 H	1	UNK0	0.213	
@<TRIPOS>BOND
1 4 31 1
2 4 32 1
3 5 36 1
4 5 58 1
5 6 42 1
6 6 59 1
7 7 45 1
8 7 60 1
9 8 61 1
10 8 62 1
11 9 46 1
12 9 47 1
13 10 50 1
14 10 66 1
15 11 50 1
16 11 63 1
17 12 64 1
18 12 65 1
19 13 14 1
20 13 24 1
21 14 15 1
22 14 18 1
23 15 16 1
24 15 17 1
25 15 52 2
26 18 19 1
27 18 20 1
28 1 19 1
29 20 21 1
30 21 22 1
31 21 23 1
32 2 22 1
33 3 23 1
34 24 25 1
35 25 26 1
36 25 30 1
37 26 27 1
38 27 28 1
39 4 28 1
40 28 29 1
41 29 30 1
42 32 33 1
43 33 34 1
44 34 35 1
45 5 35 1
46 35 53 2
47 36 37 1
48 37 38 1
49 38 39 1
50 39 40 1
51 40 41 1
52 6 41 1
53 42 54 2
54 42 55 2
55 43 44 1
56 7 44 1
57 44 48 1
58 8 45 1
59 9 45 1
60 10 46 1
61 46 48 1
62 46 49 1
63 47 51 1
64 11 48 1
65 49 51 1
66 49 56 2
67 49 57 2
68 12 50 1
69 20 52 2
70 43 55 2
71 56 67 1
72 57 68 1
@<TRIPOS>SUBSTRUCTURE
1	UNK0	1	GROUP	1 ****	UNK
