MODEL 1
REMARK VINA RESULT:      -7.3      0.000      0.000
REMARK  4 active torsions:
REMARK  status: ('A' for Active; 'I' for Inactive)
REMARK    1  A    between atoms: C_6  and  C_7 
REMARK    2  A    between atoms: C_7  and  O_8 
REMARK    3  A    between atoms: C_20  and  O_21 
REMARK    4  A    between atoms: C_20  and  O_22 
ROOT
ATOM      1  N           0     135.927 134.702 146.891  0.00  0.00    -0.235 N 
ATOM      2  H           0     136.248 135.596 147.083  0.00  0.00     0.174 HD
ATOM      3  H           0     135.617 134.132 147.613  0.00  0.00     0.174 HD
ATOM      4  C           0     135.910 134.265 145.663  0.00  0.00     0.672 C 
ATOM      5  N           0     136.337 135.040 144.599  0.00  0.00    -0.218 N 
ATOM      6  C           0     136.879 134.364 143.423  0.00  0.00     0.150 C 
ATOM      7  C           0     135.964 133.272 142.906  0.00  0.00     0.180 C 
ATOM      8  N           0     134.842 133.887 142.166  0.00  0.00    -0.216 N 
ATOM      9  C           0     133.706 133.179 142.473  0.00  0.00     0.670 C 
ATOM     10  N           0     132.618 133.194 141.754  0.00  0.00    -0.235 N 
ATOM     11  H           0     132.578 133.727 140.945  0.00  0.00     0.174 HD
ATOM     12  H           0     131.849 132.669 142.028  0.00  0.00     0.174 HD
ATOM     13  C           0     135.282 132.462 143.997  0.00  0.00     0.217 C 
ATOM     14  N           0     133.857 132.457 143.630  0.00  0.00    -0.191 N 
ATOM     15  N           0     135.473 133.006 145.342  0.00  0.00    -0.183 N 
ATOM     16  C           0     135.153 131.898 146.260  0.00  0.00     0.150 C 
ATOM     17  C           0     135.730 130.643 145.562  0.00  0.00     0.093 C 
ATOM     18  C           0     135.812 131.020 144.060  0.00  0.00     0.209 C 
ATOM     19  H           0     136.279 136.008 144.635  0.00  0.00     0.178 HD
ATOM     20  H           0     134.898 134.651 141.572  0.00  0.00     0.178 HD
ATOM     21  H           0     133.146 132.014 144.118  0.00  0.00     0.180 HD
ENDROOT
BRANCH  18  22
ATOM     22  O           0     134.991 130.148 143.282  0.00  0.00    -0.362 OA
ATOM     23  H           0     134.088 130.242 143.616  0.00  0.00     0.213 HD
ENDBRANCH  18  22
BRANCH  18  24
ATOM     24  O           0     137.166 130.968 143.607  0.00  0.00    -0.362 OA
ATOM     25  H           0     137.139 131.004 142.640  0.00  0.00     0.213 HD
ENDBRANCH  18  24
BRANCH   6  26
ATOM     26  C           0     138.229 133.745 143.788  0.00  0.00     0.192 C 
BRANCH  26  27
ATOM     27  O           0     138.734 133.009 142.671  0.00  0.00    -0.399 OA
ATOM     28  H           0     138.058 133.048 141.982  0.00  0.00     0.209 HD
ENDBRANCH  26  27
ENDBRANCH   6  26
TORSDOF 4
ENDMDL
MODEL 2
REMARK VINA RESULT:      -7.1      1.734      2.493
REMARK  4 active torsions:
REMARK  status: ('A' for Active; 'I' for Inactive)
REMARK    1  A    between atoms: C_6  and  C_7 
REMARK    2  A    between atoms: C_7  and  O_8 
REMARK    3  A    between atoms: C_20  and  O_21 
REMARK    4  A    between atoms: C_20  and  O_22 
ROOT
ATOM      1  N           0     134.895 131.977 146.657  0.00  0.00    -0.235 N 
ATOM      2  H           0     135.166 132.046 147.585  0.00  0.00     0.174 HD
ATOM      3  H           0     134.208 131.342 146.397  0.00  0.00     0.174 HD
ATOM      4  C           0     135.450 132.740 145.758  0.00  0.00     0.672 C 
ATOM      5  N           0     136.430 133.664 146.078  0.00  0.00    -0.218 N 
ATOM      6  C           0     137.415 134.011 145.058  0.00  0.00     0.150 C 
ATOM      7  C           0     136.777 134.401 143.739  0.00  0.00     0.180 C 
ATOM      8  N           0     136.246 135.776 143.844  0.00  0.00    -0.216 N 
ATOM      9  C           0     135.043 135.808 143.181  0.00  0.00     0.670 C 
ATOM     10  N           0     134.470 136.899 142.757  0.00  0.00    -0.235 N 
ATOM     11  H           0     134.895 137.759 142.902  0.00  0.00     0.174 HD
ATOM     12  H           0     133.618 136.851 142.294  0.00  0.00     0.174 HD
ATOM     13  C           0     135.561 133.567 143.365  0.00  0.00     0.217 C 
ATOM     14  N           0     134.520 134.549 143.022  0.00  0.00    -0.191 N 
ATOM     15  N           0     135.107 132.674 144.432  0.00  0.00    -0.183 N 
ATOM     16  C           0     134.259 131.669 143.765  0.00  0.00     0.150 C 
ATOM     17  C           0     134.977 131.393 142.423  0.00  0.00     0.093 C 
ATOM     18  C           0     135.838 132.655 142.159  0.00  0.00     0.209 C 
ATOM     19  H           0     136.460 134.070 146.959  0.00  0.00     0.178 HD
ATOM     20  H           0     136.669 136.521 144.298  0.00  0.00     0.178 HD
ATOM     21  H           0     133.619 134.343 142.730  0.00  0.00     0.180 HD
ENDROOT
BRANCH  18  22
ATOM     22  O           0     135.433 133.289 140.945  0.00  0.00    -0.362 OA
ATOM     23  H           0     135.319 134.229 141.145  0.00  0.00     0.213 HD
ENDBRANCH  18  22
BRANCH  18  24
ATOM     24  O           0     137.223 132.310 142.105  0.00  0.00    -0.362 OA
ATOM     25  H           0     137.693 132.950 142.658  0.00  0.00     0.213 HD
ENDBRANCH  18  24
BRANCH   6  26
ATOM     26  C           0     138.329 132.807 144.825  0.00  0.00     0.192 C 
BRANCH  26  27
ATOM     27  O           0     139.230 133.091 143.752  0.00  0.00    -0.399 OA
ATOM     28  H           0     139.671 133.923 143.970  0.00  0.00     0.209 HD
ENDBRANCH  26  27
ENDBRANCH   6  26
TORSDOF 4
ENDMDL
MODEL 3
REMARK VINA RESULT:      -6.4      1.914      2.190
REMARK  4 active torsions:
REMARK  status: ('A' for Active; 'I' for Inactive)
REMARK    1  A    between atoms: C_6  and  C_7 
REMARK    2  A    between atoms: C_7  and  O_8 
REMARK    3  A    between atoms: C_20  and  O_21 
REMARK    4  A    between atoms: C_20  and  O_22 
ROOT
ATOM      1  N           0     135.927 134.760 147.585  0.00  0.00    -0.235 N 
ATOM      2  H           0     136.318 135.645 147.516  0.00  0.00     0.174 HD
ATOM      3  H           0     135.357 134.538 148.337  0.00  0.00     0.174 HD
ATOM      4  C           0     136.165 133.870 146.663  0.00  0.00     0.672 C 
ATOM      5  N           0     136.967 134.140 145.567  0.00  0.00    -0.218 N 
ATOM      6  C           0     137.687 133.031 144.947  0.00  0.00     0.150 C 
ATOM      7  C           0     136.786 131.856 144.625  0.00  0.00     0.180 C 
ATOM      8  N           0     136.002 132.163 143.411  0.00  0.00    -0.216 N 
ATOM      9  C           0     134.731 131.678 143.604  0.00  0.00     0.670 C 
ATOM     10  N           0     133.884 131.443 142.642  0.00  0.00    -0.235 N 
ATOM     11  H           0     134.136 131.609 141.720  0.00  0.00     0.174 HD
ATOM     12  H           0     133.000 131.099 142.848  0.00  0.00     0.174 HD
ATOM     13  C           0     135.729 131.575 145.681  0.00  0.00     0.217 C 
ATOM     14  N           0     134.465 131.473 144.934  0.00  0.00    -0.191 N 
ATOM     15  N           0     135.642 132.604 146.718  0.00  0.00    -0.183 N 
ATOM     16  C           0     134.931 131.967 147.842  0.00  0.00     0.150 C 
ATOM     17  C           0     135.474 130.519 147.867  0.00  0.00     0.093 C 
ATOM     18  C           0     136.001 130.261 146.432  0.00  0.00     0.209 C 
ATOM     19  H           0     137.048 135.042 145.221  0.00  0.00     0.178 HD
ATOM     20  H           0     136.325 132.624 142.621  0.00  0.00     0.178 HD
ATOM     21  H           0     133.593 131.289 145.316  0.00  0.00     0.180 HD
ENDROOT
BRANCH  18  22
ATOM     22  O           0     135.289 129.179 145.827  0.00  0.00    -0.362 OA
ATOM     23  H           0     135.405 129.268 144.871  0.00  0.00     0.213 HD
ENDBRANCH  18  22
BRANCH  18  24
ATOM     24  O           0     137.402 129.984 146.458  0.00  0.00    -0.362 OA
ATOM     25  H           0     137.561 129.286 145.806  0.00  0.00     0.213 HD
ENDBRANCH  18  24
BRANCH   6  26
ATOM     26  C           0     138.787 132.561 145.902  0.00  0.00     0.192 C 
BRANCH  26  27
ATOM     27  O           0     139.442 131.418 145.349  0.00  0.00    -0.399 OA
ATOM     28  H           0     139.940 131.725 144.581  0.00  0.00     0.209 HD
ENDBRANCH  26  27
ENDBRANCH   6  26
TORSDOF 4
ENDMDL
MODEL 4
REMARK VINA RESULT:      -6.2      8.460     10.780
REMARK  4 active torsions:
REMARK  status: ('A' for Active; 'I' for Inactive)
REMARK    1  A    between atoms: C_6  and  C_7 
REMARK    2  A    between atoms: C_7  and  O_8 
REMARK    3  A    between atoms: C_20  and  O_21 
REMARK    4  A    between atoms: C_20  and  O_22 
ROOT
ATOM      1  N           0     132.337 137.429 132.473  0.00  0.00    -0.235 N 
ATOM      2  H           0     131.590 138.039 132.366  0.00  0.00     0.174 HD
ATOM      3  H           0     133.098 137.485 131.874  0.00  0.00     0.174 HD
ATOM      4  C           0     132.318 136.537 133.423  0.00  0.00     0.672 C 
ATOM      5  N           0     131.258 136.420 134.305  0.00  0.00    -0.218 N 
ATOM      6  C           0     130.985 135.111 134.890  0.00  0.00     0.150 C 
ATOM      7  C           0     132.216 134.480 135.509  0.00  0.00     0.180 C 
ATOM      8  N           0     132.490 135.122 136.811  0.00  0.00    -0.216 N 
ATOM      9  C           0     133.851 135.268 136.924  0.00  0.00     0.670 C 
ATOM     10  N           0     134.476 135.454 138.053  0.00  0.00    -0.235 N 
ATOM     11  H           0     133.977 135.495 138.883  0.00  0.00     0.174 HD
ATOM     12  H           0     135.442 135.549 138.062  0.00  0.00     0.174 HD
ATOM     13  C           0     133.495 134.702 134.716  0.00  0.00     0.217 C 
ATOM     14  N           0     134.471 135.196 135.701  0.00  0.00    -0.191 N 
ATOM     15  N           0     133.346 135.649 133.609  0.00  0.00    -0.183 N 
ATOM     16  C           0     134.497 135.396 132.723  0.00  0.00     0.150 C 
ATOM     17  C           0     134.673 133.860 132.751  0.00  0.00     0.093 C 
ATOM     18  C           0     134.009 133.402 134.076  0.00  0.00     0.209 C 
ATOM     19  H           0     130.711 137.190 134.527  0.00  0.00     0.178 HD
ATOM     20  H           0     131.829 135.391 137.468  0.00  0.00     0.178 HD
ATOM     21  H           0     135.395 135.426 135.520  0.00  0.00     0.180 HD
ENDROOT
BRANCH  18  22
ATOM     22  O           0     134.971 132.771 134.923  0.00  0.00    -0.362 OA
ATOM     23  H           0     135.640 132.380 134.343  0.00  0.00     0.213 HD
ENDBRANCH  18  22
BRANCH  18  24
ATOM     24  O           0     132.921 132.517 133.808  0.00  0.00    -0.362 OA
ATOM     25  H           0     132.655 132.669 132.890  0.00  0.00     0.213 HD
ENDBRANCH  18  24
BRANCH   6  26
ATOM     26  C           0     130.452 134.183 133.797  0.00  0.00     0.192 C 
BRANCH  26  27
ATOM     27  O           0     130.164 132.900 134.358  0.00  0.00    -0.399 OA
ATOM     28  H           0     130.985 132.576 134.750  0.00  0.00     0.209 HD
ENDBRANCH  26  27
ENDBRANCH   6  26
TORSDOF 4
ENDMDL
MODEL 5
REMARK VINA RESULT:      -6.2      2.454      3.767
REMARK  4 active torsions:
REMARK  status: ('A' for Active; 'I' for Inactive)
REMARK    1  A    between atoms: C_6  and  C_7 
REMARK    2  A    between atoms: C_7  and  O_8 
REMARK    3  A    between atoms: C_20  and  O_21 
REMARK    4  A    between atoms: C_20  and  O_22 
ROOT
ATOM      1  N           0     139.060 130.837 145.748  0.00  0.00    -0.235 N 
ATOM      2  H           0     139.177 130.262 146.520  0.00  0.00     0.174 HD
ATOM      3  H           0     139.787 130.955 145.117  0.00  0.00     0.174 HD
ATOM      4  C           0     137.925 131.447 145.556  0.00  0.00     0.672 C 
ATOM      5  N           0     136.856 131.306 146.425  0.00  0.00    -0.218 N 
ATOM      6  C           0     135.906 132.409 146.539  0.00  0.00     0.150 C 
ATOM      7  C           0     135.393 132.880 145.193  0.00  0.00     0.180 C 
ATOM      8  N           0     134.382 131.923 144.696  0.00  0.00    -0.216 N 
ATOM      9  C           0     134.576 131.780 143.344  0.00  0.00     0.670 C 
ATOM     10  N           0     133.678 131.316 142.521  0.00  0.00    -0.235 N 
ATOM     11  H           0     132.807 131.048 142.854  0.00  0.00     0.174 HD
ATOM     12  H           0     133.880 131.241 141.575  0.00  0.00     0.174 HD
ATOM     13  C           0     136.447 132.899 144.097  0.00  0.00     0.217 C 
ATOM     14  N           0     135.832 132.183 142.967  0.00  0.00    -0.191 N 
ATOM     15  N           0     137.713 132.275 144.485  0.00  0.00    -0.183 N 
ATOM     16  C           0     138.707 132.774 143.517  0.00  0.00     0.150 C 
ATOM     17  C           0     138.312 134.253 143.290  0.00  0.00     0.093 C 
ATOM     18  C           0     136.811 134.332 143.674  0.00  0.00     0.209 C 
ATOM     19  H           0     136.742 130.494 146.944  0.00  0.00     0.178 HD
ATOM     20  H           0     133.705 131.478 145.228  0.00  0.00     0.178 HD
ATOM     21  H           0     136.242 132.027 142.103  0.00  0.00     0.180 HD
ENDROOT
BRANCH  18  22
ATOM     22  O           0     136.030 134.737 142.548  0.00  0.00    -0.362 OA
ATOM     23  H           0     136.586 134.621 141.765  0.00  0.00     0.213 HD
ENDBRANCH  18  22
BRANCH  18  24
ATOM     24  O           0     136.623 135.235 144.764  0.00  0.00    -0.362 OA
ATOM     25  H           0     135.693 135.504 144.748  0.00  0.00     0.213 HD
ENDBRANCH  18  24
BRANCH   6  26
ATOM     26  C           0     136.595 133.582 147.241  0.00  0.00     0.192 C 
BRANCH  26  27
ATOM     27  O           0     135.715 134.708 147.262  0.00  0.00    -0.399 OA
ATOM     28  H           0     135.968 135.273 146.520  0.00  0.00     0.209 HD
ENDBRANCH  26  27
ENDBRANCH   6  26
TORSDOF 4
ENDMDL
MODEL 6
REMARK VINA RESULT:      -6.1      2.819      4.383
REMARK  4 active torsions:
REMARK  status: ('A' for Active; 'I' for Inactive)
REMARK    1  A    between atoms: C_6  and  C_7 
REMARK    2  A    between atoms: C_7  and  O_8 
REMARK    3  A    between atoms: C_20  and  O_21 
REMARK    4  A    between atoms: C_20  and  O_22 
ROOT
ATOM      1  N           0     135.144 130.537 143.280  0.00  0.00    -0.235 N 
ATOM      2  H           0     134.990 130.382 142.335  0.00  0.00     0.174 HD
ATOM      3  H           0     134.682 129.999 143.942  0.00  0.00     0.174 HD
ATOM      4  C           0     135.975 131.466 143.660  0.00  0.00     0.672 C 
ATOM      5  N           0     136.663 132.256 142.755  0.00  0.00    -0.218 N 
ATOM      6  C           0     137.050 133.603 143.166  0.00  0.00     0.150 C 
ATOM      7  C           0     137.780 133.621 144.494  0.00  0.00     0.180 C 
ATOM      8  N           0     139.172 133.169 144.290  0.00  0.00    -0.216 N 
ATOM      9  C           0     139.511 132.376 145.359  0.00  0.00     0.670 C 
ATOM     10  N           0     140.737 132.100 145.706  0.00  0.00    -0.235 N 
ATOM     11  H           0     141.479 132.464 145.198  0.00  0.00     0.174 HD
ATOM     12  H           0     140.908 131.533 146.474  0.00  0.00     0.174 HD
ATOM     13  C           0     137.226 132.646 145.522  0.00  0.00     0.217 C 
ATOM     14  N           0     138.400 131.908 146.015  0.00  0.00    -0.191 N 
ATOM     15  N           0     136.221 131.729 144.983  0.00  0.00    -0.183 N 
ATOM     16  C           0     135.503 131.203 146.159  0.00  0.00     0.150 C 
ATOM     17  C           0     135.388 132.416 147.112  0.00  0.00     0.093 C 
ATOM     18  C           0     136.534 133.371 146.688  0.00  0.00     0.209 C 
ATOM     19  H           0     136.880 131.923 141.870  0.00  0.00     0.178 HD
ATOM     20  H           0     139.743 133.392 143.539  0.00  0.00     0.178 HD
ATOM     21  H           0     138.392 131.214 146.692  0.00  0.00     0.180 HD
ENDROOT
BRANCH  18  22
ATOM     22  O           0     137.446 133.566 147.771  0.00  0.00    -0.362 OA
ATOM     23  H           0     138.122 134.184 147.460  0.00  0.00     0.213 HD
ENDBRANCH  18  22
BRANCH  18  24
ATOM     24  O           0     136.004 134.623 146.251  0.00  0.00    -0.362 OA
ATOM     25  H           0     135.992 134.599 145.283  0.00  0.00     0.213 HD
ENDBRANCH  18  24
BRANCH   6  26
ATOM     26  C           0     135.791 134.464 143.284  0.00  0.00     0.192 C 
BRANCH  26  27
ATOM     27  O           0     136.160 135.805 143.617  0.00  0.00    -0.399 OA
ATOM     28  H           0     136.597 136.176 142.839  0.00  0.00     0.209 HD
ENDBRANCH  26  27
ENDBRANCH   6  26
TORSDOF 4
ENDMDL
MODEL 7
REMARK VINA RESULT:      -6.0      9.487     11.083
REMARK  4 active torsions:
REMARK  status: ('A' for Active; 'I' for Inactive)
REMARK    1  A    between atoms: C_6  and  C_7 
REMARK    2  A    between atoms: C_7  and  O_8 
REMARK    3  A    between atoms: C_20  and  O_21 
REMARK    4  A    between atoms: C_20  and  O_22 
ROOT
ATOM      1  N           0     134.490 132.872 132.665  0.00  0.00    -0.235 N 
ATOM      2  H           0     134.535 132.118 132.057  0.00  0.00     0.174 HD
ATOM      3  H           0     135.299 133.350 132.906  0.00  0.00     0.174 HD
ATOM      4  C           0     133.342 133.244 133.156  0.00  0.00     0.672 C 
ATOM      5  N           0     132.159 132.598 132.839  0.00  0.00    -0.218 N 
ATOM      6  C           0     131.078 132.613 133.820  0.00  0.00     0.150 C 
ATOM      7  C           0     130.761 134.008 134.319  0.00  0.00     0.180 C 
ATOM      8  N           0     129.980 134.727 133.291  0.00  0.00    -0.216 N 
ATOM      9  C           0     130.430 136.024 133.260  0.00  0.00     0.670 C 
ATOM     10  N           0     129.758 137.021 132.755  0.00  0.00    -0.235 N 
ATOM     11  H           0     128.881 136.869 132.370  0.00  0.00     0.174 HD
ATOM     12  H           0     130.134 137.915 132.766  0.00  0.00     0.174 HD
ATOM     13  C           0     131.985 134.886 134.529  0.00  0.00     0.217 C 
ATOM     14  N           0     131.675 136.142 133.826  0.00  0.00    -0.191 N 
ATOM     15  N           0     133.227 134.298 134.025  0.00  0.00    -0.183 N 
ATOM     16  C           0     134.310 135.040 134.696  0.00  0.00     0.150 C 
ATOM     17  C           0     133.785 135.270 136.133  0.00  0.00     0.093 C 
ATOM     18  C           0     132.242 135.169 136.018  0.00  0.00     0.209 C 
ATOM     19  H           0     132.054 132.146 131.987  0.00  0.00     0.178 HD
ATOM     20  H           0     129.278 134.352 132.738  0.00  0.00     0.178 HD
ATOM     21  H           0     132.250 136.921 133.775  0.00  0.00     0.180 HD
ENDROOT
BRANCH  18  22
ATOM     22  O           0     131.632 136.402 136.408  0.00  0.00    -0.362 OA
ATOM     23  H           0     130.676 136.258 136.391  0.00  0.00     0.213 HD
ENDBRANCH  18  22
BRANCH  18  24
ATOM     24  O           0     131.752 134.094 136.820  0.00  0.00    -0.362 OA
ATOM     25  H           0     132.087 133.276 136.426  0.00  0.00     0.213 HD
ENDBRANCH  18  24
BRANCH   6  26
ATOM     26  C           0     131.480 131.742 135.012  0.00  0.00     0.192 C 
BRANCH  26  27
ATOM     27  O           0     130.358 131.574 135.881  0.00  0.00    -0.399 OA
ATOM     28  H           0     129.594 131.391 135.318  0.00  0.00     0.209 HD
ENDBRANCH  26  27
ENDBRANCH   6  26
TORSDOF 4
ENDMDL
MODEL 8
REMARK VINA RESULT:      -5.8      2.405      3.424
REMARK  4 active torsions:
REMARK  status: ('A' for Active; 'I' for Inactive)
REMARK    1  A    between atoms: C_6  and  C_7 
REMARK    2  A    between atoms: C_7  and  O_8 
REMARK    3  A    between atoms: C_20  and  O_21 
REMARK    4  A    between atoms: C_20  and  O_22 
ROOT
ATOM      1  N           0     136.253 135.149 147.947  0.00  0.00    -0.235 N 
ATOM      2  H           0     135.645 135.900 147.871  0.00  0.00     0.174 HD
ATOM      3  H           0     136.832 135.069 148.721  0.00  0.00     0.174 HD
ATOM      4  C           0     136.289 134.243 147.011  0.00  0.00     0.672 C 
ATOM      5  N           0     135.480 134.308 145.889  0.00  0.00    -0.218 N 
ATOM      6  C           0     135.959 133.696 144.653  0.00  0.00     0.150 C 
ATOM      7  C           0     136.419 132.266 144.850  0.00  0.00     0.180 C 
ATOM      8  N           0     135.237 131.384 144.952  0.00  0.00    -0.216 N 
ATOM      9  C           0     135.501 130.447 145.921  0.00  0.00     0.670 C 
ATOM     10  N           0     134.866 129.314 146.036  0.00  0.00    -0.235 N 
ATOM     11  H           0     134.158 129.089 145.413  0.00  0.00     0.174 HD
ATOM     12  H           0     135.103 128.695 146.745  0.00  0.00     0.174 HD
ATOM     13  C           0     137.167 132.026 146.152  0.00  0.00     0.217 C 
ATOM     14  N           0     136.515 130.851 146.753  0.00  0.00    -0.191 N 
ATOM     15  N           0     137.136 133.167 147.069  0.00  0.00    -0.183 N 
ATOM     16  C           0     138.240 132.934 148.019  0.00  0.00     0.150 C 
ATOM     17  C           0     139.373 132.337 147.151  0.00  0.00     0.093 C 
ATOM     18  C           0     138.657 131.733 145.914  0.00  0.00     0.209 C 
ATOM     19  H           0     134.617 134.750 145.925  0.00  0.00     0.178 HD
ATOM     20  H           0     134.423 131.454 144.431  0.00  0.00     0.178 HD
ATOM     21  H           0     136.762 130.431 147.591  0.00  0.00     0.180 HD
ENDROOT
BRANCH  18  22
ATOM     22  O           0     138.889 130.325 145.843  0.00  0.00    -0.362 OA
ATOM     23  H           0     139.663 130.197 145.278  0.00  0.00     0.213 HD
ENDBRANCH  18  22
BRANCH  18  24
ATOM     24  O           0     139.105 132.374 144.719  0.00  0.00    -0.362 OA
ATOM     25  H           0     138.616 131.972 143.986  0.00  0.00     0.213 HD
ENDBRANCH  18  24
BRANCH   6  26
ATOM     26  C           0     137.130 134.521 144.116  0.00  0.00     0.192 C 
BRANCH  26  27
ATOM     27  O           0     136.652 135.788 143.659  0.00  0.00    -0.399 OA
ATOM     28  H           0     135.754 135.887 144.000  0.00  0.00     0.209 HD
ENDBRANCH  26  27
ENDBRANCH   6  26
TORSDOF 4
ENDMDL
MODEL 9
REMARK VINA RESULT:      -5.7      9.661     11.573
REMARK  4 active torsions:
REMARK  status: ('A' for Active; 'I' for Inactive)
REMARK    1  A    between atoms: C_6  and  C_7 
REMARK    2  A    between atoms: C_7  and  O_8 
REMARK    3  A    between atoms: C_20  and  O_21 
REMARK    4  A    between atoms: C_20  and  O_22 
ROOT
ATOM      1  N           0     129.811 133.234 131.351  0.00  0.00    -0.235 N 
ATOM      2  H           0     128.982 132.732 131.303  0.00  0.00     0.174 HD
ATOM      3  H           0     130.148 133.689 130.564  0.00  0.00     0.174 HD
ATOM      4  C           0     130.469 133.298 132.474  0.00  0.00     0.672 C 
ATOM      5  N           0     130.026 132.670 133.625  0.00  0.00    -0.218 N 
ATOM      6  C           0     131.019 132.245 134.607  0.00  0.00     0.150 C 
ATOM      7  C           0     131.979 133.356 134.986  0.00  0.00     0.180 C 
ATOM      8  N           0     131.303 134.286 135.915  0.00  0.00    -0.216 N 
ATOM      9  C           0     131.684 135.561 135.575  0.00  0.00     0.670 C 
ATOM     10  N           0     131.587 136.590 136.370  0.00  0.00    -0.235 N 
ATOM     11  H           0     131.229 136.481 137.264  0.00  0.00     0.174 HD
ATOM     12  H           0     131.876 137.465 136.067  0.00  0.00     0.174 HD
ATOM     13  C           0     132.396 134.241 133.822  0.00  0.00     0.217 C 
ATOM     14  N           0     132.178 135.617 134.296  0.00  0.00    -0.191 N 
ATOM     15  N           0     131.648 133.988 132.590  0.00  0.00    -0.183 N 
ATOM     16  C           0     132.461 134.579 131.511  0.00  0.00     0.150 C 
ATOM     17  C           0     133.921 134.265 131.916  0.00  0.00     0.093 C 
ATOM     18  C           0     133.875 134.043 133.450  0.00  0.00     0.209 C 
ATOM     19  H           0     129.080 132.516 133.774  0.00  0.00     0.178 HD
ATOM     20  H           0     130.701 134.041 136.634  0.00  0.00     0.178 HD
ATOM     21  H           0     132.357 136.427 133.793  0.00  0.00     0.180 HD
ENDROOT
BRANCH  18  22
ATOM     22  O           0     134.694 135.005 134.117  0.00  0.00    -0.362 OA
ATOM     23  H           0     134.124 135.754 134.336  0.00  0.00     0.213 HD
ENDBRANCH  18  22
BRANCH  18  24
ATOM     24  O           0     134.296 132.717 133.775  0.00  0.00    -0.362 OA
ATOM     25  H           0     134.978 132.799 134.456  0.00  0.00     0.213 HD
ENDBRANCH  18  24
BRANCH   6  26
ATOM     26  C           0     131.821 131.079 134.026  0.00  0.00     0.192 C 
BRANCH  26  27
ATOM     27  O           0     132.660 130.523 135.041  0.00  0.00    -0.399 OA
ATOM     28  H           0     132.481 129.574 135.063  0.00  0.00     0.209 HD
ENDBRANCH  26  27
ENDBRANCH   6  26
TORSDOF 4
ENDMDL
