# created with PyMOL 2.3.4
@<TRIPOS>MOLECULE
ligand_out_0001
28 30 1                 
SMALL
USER_CHARGES
@<TRIPOS>ATOM
1	   N	135.927	134.702	146.891	N.3	1	UNK0	-0.235	
2	   N	136.337	135.040	144.599	N.3	1	UNK0	-0.218	
3	   N	134.842	133.887	142.166	N.3	1	UNK0	-0.216	
4	   N	132.618	133.194	141.754	N.3	1	UNK0	-0.235	
5	   N	133.857	132.457	143.630	N.3	1	UNK0	-0.191	
6	   N	135.473	133.006	145.342	N.3	1	UNK0	-0.183	
7	   C	135.910	134.265	145.663	C.3	1	UNK0	0.672	
8	   C	136.879	134.364	143.423	C.3	1	UNK0	0.150	
9	   C	135.964	133.272	142.906	C.3	1	UNK0	0.180	
10	   C	133.706	133.179	142.473	C.3	1	UNK0	0.670	
11	   C	135.282	132.462	143.997	C.3	1	UNK0	0.217	
12	   C	135.153	131.898	146.260	C.3	1	UNK0	0.150	
13	   C	135.730	130.643	145.562	C.3	1	UNK0	0.093	
14	   C	135.812	131.020	144.060	C.3	1	UNK0	0.209	
15	   C	138.229	133.745	143.788	C.2	1	UNK0	0.192	
16	   O	134.991	130.148	143.282	O.2	1	UNK0	-0.362	
17	   O	137.166	130.968	143.607	O.2	1	UNK0	-0.362	
18	   O	138.734	133.009	142.671	O.2	1	UNK0	-0.399	
19	   H	136.248	135.596	147.083	 H	1	UNK0	0.174	
20	   H	135.617	134.132	147.613	 H	1	UNK0	0.174	
21	   H	132.578	133.727	140.945	 H	1	UNK0	0.174	
22	   H	131.849	132.669	142.028	 H	1	UNK0	0.174	
23	   H	136.279	136.008	144.635	 H	1	UNK0	0.178	
24	   H	134.898	134.651	141.572	 H	1	UNK0	0.178	
25	   H	133.146	132.014	144.118	 H	1	UNK0	0.180	
26	   H	134.088	130.242	143.616	 H	1	UNK0	0.213	
27	   H	137.139	131.004	142.640	 H	1	UNK0	0.213	
28	   H	138.058	133.048	141.982	 H	1	UNK0	0.209	
@<TRIPOS>BOND
1 1 7 1
2 1 19 1
3 1 20 1
4 2 8 1
5 2 23 1
6 3 10 1
7 3 24 1
8 4 21 1
9 4 22 1
10 5 25 1
11 6 12 1
12 2 7 1
13 6 7 1
14 8 9 1
15 8 15 1
16 3 9 1
17 9 11 1
18 4 10 1
19 5 10 1
20 5 11 1
21 6 11 1
22 11 14 1
23 12 13 1
24 13 14 1
25 14 16 2
26 14 17 2
27 15 18 2
28 16 26 1
29 17 27 1
30 18 28 1
@<TRIPOS>SUBSTRUCTURE
1	UNK0	1	GROUP	1 ****	UNK
