# created with PyMOL 2.3.4
@<TRIPOS>MOLECULE
ligand_out_0001
32 34 1                 
SMALL
USER_CHARGES
@<TRIPOS>ATOM
1	   N	135.111	136.808	143.207	N.3	1	UNK0	-0.235	
2	   N	133.890	134.805	143.018	N.3	1	UNK0	-0.218	
3	   N	134.166	132.200	144.638	N.3	1	UNK0	-0.216	
4	   N	134.856	131.673	146.840	N.3	1	UNK0	-0.235	
5	   N	136.131	133.049	145.399	N.3	1	UNK0	-0.191	
6	   N	136.125	134.751	143.681	N.3	1	UNK0	-0.183	
7	   N	133.497	136.077	139.840	N.pl3	1	UNK0	-0.346	
8	   C	135.048	135.509	143.301	C.3	1	UNK0	0.672	
9	   C	134.014	133.433	142.537	C.3	1	UNK0	0.151	
10	   C	134.909	132.583	143.420	C.3	1	UNK0	0.180	
11	   C	135.040	132.271	145.696	C.3	1	UNK0	0.670	
12	   C	136.132	133.313	143.951	C.3	1	UNK0	0.217	
13	   C	137.524	135.186	143.848	C.3	1	UNK0	0.150	
14	   C	138.359	134.027	143.252	C.3	1	UNK0	0.093	
15	   C	137.434	132.786	143.324	C.3	1	UNK0	0.209	
16	   C	134.597	133.457	141.123	C.2	1	UNK0	0.208	
17	   C	133.669	134.831	139.355	C.2	1	UNK0	0.358	
18	   O	133.546	133.768	140.171	O.2	1	UNK0	-0.302	
19	   O	133.936	134.668	138.181	O.co2	1	UNK0	-0.239	
20	   O	138.018	131.777	144.150	O.2	1	UNK0	-0.362	
21	   O	137.182	132.275	142.013	O.2	1	UNK0	-0.362	
22	   H	134.331	137.313	142.931	 H	1	UNK0	0.174	
23	   H	135.939	137.269	143.416	 H	1	UNK0	0.174	
24	   H	134.061	131.137	146.984	 H	1	UNK0	0.174	
25	   H	135.515	131.765	147.546	 H	1	UNK0	0.174	
26	   H	133.019	135.214	143.138	 H	1	UNK0	0.178	
27	   H	133.231	131.944	144.685	 H	1	UNK0	0.178	
28	   H	136.791	133.368	146.035	 H	1	UNK0	0.180	
29	   H	133.284	136.208	140.778	 H	1	UNK0	0.161	
30	   H	133.586	136.843	139.252	 H	1	UNK0	0.161	
31	   H	137.841	130.928	143.722	 H	1	UNK0	0.213	
32	   H	136.732	131.426	142.126	 H	1	UNK0	0.213	
@<TRIPOS>BOND
1 1 8 1
2 1 22 1
3 1 23 1
4 2 9 1
5 2 26 1
6 3 11 1
7 3 27 1
8 4 24 1
9 4 25 1
10 5 28 1
11 6 13 1
12 7 29 1
13 7 30 1
14 2 8 1
15 6 8 1
16 9 10 1
17 9 16 1
18 3 10 1
19 10 12 1
20 4 11 1
21 5 11 1
22 5 12 1
23 6 12 1
24 12 15 1
25 13 14 1
26 14 15 1
27 15 20 2
28 15 21 2
29 16 18 2
30 7 17 1
31 17 19 2
32 17 18 2
33 20 31 1
34 21 32 1
@<TRIPOS>SUBSTRUCTURE
1	UNK0	1	GROUP	1 ****	UNK
