MODEL 1
REMARK VINA RESULT:      -8.2      0.000      0.000
REMARK  5 active torsions:
REMARK  status: ('A' for Active; 'I' for Inactive)
REMARK    1  A    between atoms: C_6  and  C_7 
REMARK    2  A    between atoms: C_7  and  O_8 
REMARK    3  A    between atoms: O_8  and  C_9 
REMARK       I    between atoms: C_9  and  N_10 
REMARK    4  A    between atoms: C_23  and  O_24 
REMARK    5  A    between atoms: C_23  and  O_25 
ROOT
ATOM      1  N           0     135.111 136.808 143.207  0.00  0.00    -0.235 N 
ATOM      2  H           0     134.331 137.313 142.931  0.00  0.00     0.174 HD
ATOM      3  H           0     135.939 137.269 143.416  0.00  0.00     0.174 HD
ATOM      4  C           0     135.048 135.509 143.301  0.00  0.00     0.672 C 
ATOM      5  N           0     133.890 134.805 143.018  0.00  0.00    -0.218 N 
ATOM      6  C           0     134.014 133.433 142.537  0.00  0.00     0.151 C 
ATOM      7  C           0     134.909 132.583 143.420  0.00  0.00     0.180 C 
ATOM      8  N           0     134.166 132.200 144.638  0.00  0.00    -0.216 N 
ATOM      9  C           0     135.040 132.271 145.696  0.00  0.00     0.670 C 
ATOM     10  N           0     134.856 131.673 146.840  0.00  0.00    -0.235 N 
ATOM     11  H           0     134.061 131.137 146.984  0.00  0.00     0.174 HD
ATOM     12  H           0     135.515 131.765 147.546  0.00  0.00     0.174 HD
ATOM     13  C           0     136.132 133.313 143.951  0.00  0.00     0.217 C 
ATOM     14  N           0     136.131 133.049 145.399  0.00  0.00    -0.191 N 
ATOM     15  N           0     136.125 134.751 143.681  0.00  0.00    -0.183 N 
ATOM     16  C           0     137.524 135.186 143.848  0.00  0.00     0.150 C 
ATOM     17  C           0     138.359 134.027 143.252  0.00  0.00     0.093 C 
ATOM     18  C           0     137.434 132.786 143.324  0.00  0.00     0.209 C 
ATOM     19  H           0     133.019 135.214 143.138  0.00  0.00     0.178 HD
ATOM     20  H           0     133.231 131.944 144.685  0.00  0.00     0.178 HD
ATOM     21  H           0     136.791 133.368 146.035  0.00  0.00     0.180 HD
ENDROOT
BRANCH   6  22
ATOM     22  C           0     134.597 133.457 141.123  0.00  0.00     0.208 C 
BRANCH  22  23
ATOM     23  O           0     133.546 133.768 140.171  0.00  0.00    -0.302 OA
BRANCH  23  24
ATOM     24  C           0     133.669 134.831 139.355  0.00  0.00     0.358 C 
ATOM     25  N           0     133.497 136.077 139.840  0.00  0.00    -0.346 N 
ATOM     26  H           0     133.284 136.208 140.778  0.00  0.00     0.161 HD
ATOM     27  H           0     133.586 136.843 139.252  0.00  0.00     0.161 HD
ATOM     28  O           0     133.936 134.668 138.181  0.00  0.00    -0.239 OA
ENDBRANCH  23  24
ENDBRANCH  22  23
ENDBRANCH   6  22
BRANCH  18  29
ATOM     29  O           0     138.018 131.777 144.150  0.00  0.00    -0.362 OA
ATOM     30  H           0     137.841 130.928 143.722  0.00  0.00     0.213 HD
ENDBRANCH  18  29
BRANCH  18  31
ATOM     31  O           0     137.182 132.275 142.013  0.00  0.00    -0.362 OA
ATOM     32  H           0     136.732 131.426 142.126  0.00  0.00     0.213 HD
ENDBRANCH  18  31
TORSDOF 5
ENDMDL
MODEL 2
REMARK VINA RESULT:      -7.9      1.854      5.567
REMARK  5 active torsions:
REMARK  status: ('A' for Active; 'I' for Inactive)
REMARK    1  A    between atoms: C_6  and  C_7 
REMARK    2  A    between atoms: C_7  and  O_8 
REMARK    3  A    between atoms: O_8  and  C_9 
REMARK       I    between atoms: C_9  and  N_10 
REMARK    4  A    between atoms: C_23  and  O_24 
REMARK    5  A    between atoms: C_23  and  O_25 
ROOT
ATOM      1  N           0     135.217 132.405 146.855  0.00  0.00    -0.235 N 
ATOM      2  H           0     135.502 132.580 147.766  0.00  0.00     0.174 HD
ATOM      3  H           0     134.577 131.699 146.674  0.00  0.00     0.174 HD
ATOM      4  C           0     135.691 133.122 145.875  0.00  0.00     0.672 C 
ATOM      5  N           0     136.601 134.144 146.082  0.00  0.00    -0.218 N 
ATOM      6  C           0     137.532 134.470 145.006  0.00  0.00     0.151 C 
ATOM      7  C           0     136.836 134.688 143.677  0.00  0.00     0.180 C 
ATOM      8  N           0     136.201 136.022 143.674  0.00  0.00    -0.216 N 
ATOM      9  C           0     134.985 135.902 143.047  0.00  0.00     0.670 C 
ATOM     10  N           0     134.318 136.902 142.543  0.00  0.00    -0.235 N 
ATOM     11  H           0     134.677 137.801 142.599  0.00  0.00     0.174 HD
ATOM     12  H           0     133.463 136.746 142.113  0.00  0.00     0.174 HD
ATOM     13  C           0     135.681 133.733 143.417  0.00  0.00     0.217 C 
ATOM     14  N           0     134.558 134.597 143.017  0.00  0.00    -0.191 N 
ATOM     15  N           0     135.323 132.910 144.572  0.00  0.00    -0.183 N 
ATOM     16  C           0     134.542 131.787 144.023  0.00  0.00     0.150 C 
ATOM     17  C           0     135.249 131.444 142.690  0.00  0.00     0.093 C 
ATOM     18  C           0     136.002 132.738 142.288  0.00  0.00     0.209 C 
ATOM     19  H           0     136.620 134.631 146.920  0.00  0.00     0.178 HD
ATOM     20  H           0     136.575 136.837 144.046  0.00  0.00     0.178 HD
ATOM     21  H           0     133.670 134.296 142.771  0.00  0.00     0.180 HD
ENDROOT
BRANCH   6  22
ATOM     22  C           0     138.533 133.323 144.856  0.00  0.00     0.208 C 
BRANCH  22  23
ATOM     23  O           0     138.874 132.802 146.167  0.00  0.00    -0.302 OA
BRANCH  23  24
ATOM     24  C           0     139.123 131.488 146.326  0.00  0.00     0.358 C 
ATOM     25  N           0     138.204 130.578 145.948  0.00  0.00    -0.346 N 
ATOM     26  H           0     137.363 130.869 145.561  0.00  0.00     0.161 HD
ATOM     27  H           0     138.382 129.631 146.063  0.00  0.00     0.161 HD
ATOM     28  O           0     140.176 131.124 146.810  0.00  0.00    -0.239 OA
ENDBRANCH  23  24
ENDBRANCH  22  23
ENDBRANCH   6  22
BRANCH  18  29
ATOM     29  O           0     135.520 133.225 141.035  0.00  0.00    -0.362 OA
ATOM     30  H           0     134.757 132.680 140.798  0.00  0.00     0.213 HD
ENDBRANCH  18  29
BRANCH  18  31
ATOM     31  O           0     137.409 132.496 142.224  0.00  0.00    -0.362 OA
ATOM     32  H           0     137.698 132.287 143.123  0.00  0.00     0.213 HD
ENDBRANCH  18  31
TORSDOF 5
ENDMDL
MODEL 3
REMARK VINA RESULT:      -7.1      3.297      6.098
REMARK  5 active torsions:
REMARK  status: ('A' for Active; 'I' for Inactive)
REMARK    1  A    between atoms: C_6  and  C_7 
REMARK    2  A    between atoms: C_7  and  O_8 
REMARK    3  A    between atoms: O_8  and  C_9 
REMARK       I    between atoms: C_9  and  N_10 
REMARK    4  A    between atoms: C_23  and  O_24 
REMARK    5  A    between atoms: C_23  and  O_25 
ROOT
ATOM      1  N           0     139.090 130.455 145.990  0.00  0.00    -0.235 N 
ATOM      2  H           0     139.267 129.610 146.433  0.00  0.00     0.174 HD
ATOM      3  H           0     139.822 130.966 145.610  0.00  0.00     0.174 HD
ATOM      4  C           0     137.868 130.901 145.901  0.00  0.00     0.672 C 
ATOM      5  N           0     136.790 130.207 146.423  0.00  0.00    -0.218 N 
ATOM      6  C           0     135.621 130.968 146.855  0.00  0.00     0.151 C 
ATOM      7  C           0     135.125 131.929 145.792  0.00  0.00     0.180 C 
ATOM      8  N           0     134.384 131.174 144.761  0.00  0.00    -0.216 N 
ATOM      9  C           0     134.708 131.712 143.540  0.00  0.00     0.670 C 
ATOM     10  N           0     133.997 131.558 142.458  0.00  0.00    -0.235 N 
ATOM     11  H           0     133.181 131.034 142.486  0.00  0.00     0.174 HD
ATOM     12  H           0     134.284 131.966 141.627  0.00  0.00     0.174 HD
ATOM     13  C           0     136.233 132.621 145.014  0.00  0.00     0.217 C 
ATOM     14  N           0     135.875 132.434 143.598  0.00  0.00    -0.191 N 
ATOM     15  N           0     137.569 132.091 145.291  0.00  0.00    -0.183 N 
ATOM     16  C           0     138.505 133.131 144.827  0.00  0.00     0.150 C 
ATOM     17  C           0     137.821 134.464 145.218  0.00  0.00     0.093 C 
ATOM     18  C           0     136.314 134.122 145.339  0.00  0.00     0.209 C 
ATOM     19  H           0     136.811 129.241 146.499  0.00  0.00     0.178 HD
ATOM     20  H           0     133.777 130.433 144.917  0.00  0.00     0.178 HD
ATOM     21  H           0     136.375 132.766 142.837  0.00  0.00     0.180 HD
ENDROOT
BRANCH   6  22
ATOM     22  C           0     135.986 131.764 148.109  0.00  0.00     0.208 C 
BRANCH  22  23
ATOM     23  O           0     134.784 132.334 148.688  0.00  0.00    -0.302 OA
BRANCH  23  24
ATOM     24  C           0     133.888 131.536 149.303  0.00  0.00     0.358 C 
ATOM     25  N           0     132.571 131.691 149.062  0.00  0.00    -0.346 N 
ATOM     26  H           0     132.268 132.377 148.446  0.00  0.00     0.161 HD
ATOM     27  H           0     131.926 131.118 149.504  0.00  0.00     0.161 HD
ATOM     28  O           0     134.268 130.678 150.074  0.00  0.00    -0.239 OA
ENDBRANCH  23  24
ENDBRANCH  22  23
ENDBRANCH   6  22
BRANCH  18  29
ATOM     29  O           0     135.554 134.882 144.397  0.00  0.00    -0.362 OA
ATOM     30  H           0     136.036 134.851 143.559  0.00  0.00     0.213 HD
ENDBRANCH  18  29
BRANCH  18  31
ATOM     31  O           0     135.852 134.368 146.669  0.00  0.00    -0.362 OA
ATOM     32  H           0     136.638 134.488 147.220  0.00  0.00     0.213 HD
ENDBRANCH  18  31
TORSDOF 5
ENDMDL
MODEL 4
REMARK VINA RESULT:      -6.9      2.617      3.974
REMARK  5 active torsions:
REMARK  status: ('A' for Active; 'I' for Inactive)
REMARK    1  A    between atoms: C_6  and  C_7 
REMARK    2  A    between atoms: C_7  and  O_8 
REMARK    3  A    between atoms: O_8  and  C_9 
REMARK       I    between atoms: C_9  and  N_10 
REMARK    4  A    between atoms: C_23  and  O_24 
REMARK    5  A    between atoms: C_23  and  O_25 
ROOT
ATOM      1  N           0     137.749 135.262 147.566  0.00  0.00    -0.235 N 
ATOM      2  H           0     137.418 136.148 147.349  0.00  0.00     0.174 HD
ATOM      3  H           0     138.531 135.162 148.132  0.00  0.00     0.174 HD
ATOM      4  C           0     137.143 134.207 147.100  0.00  0.00     0.672 C 
ATOM      5  N           0     136.022 134.297 146.293  0.00  0.00    -0.218 N 
ATOM      6  C           0     135.772 133.225 145.333  0.00  0.00     0.151 C 
ATOM      7  C           0     135.817 131.849 145.969  0.00  0.00     0.180 C 
ATOM      8  N           0     134.562 131.617 146.713  0.00  0.00    -0.216 N 
ATOM      9  C           0     134.886 130.963 147.877  0.00  0.00     0.670 C 
ATOM     10  N           0     134.037 130.285 148.597  0.00  0.00    -0.235 N 
ATOM     11  H           0     133.110 130.219 148.319  0.00  0.00     0.174 HD
ATOM     12  H           0     134.332 129.846 149.410  0.00  0.00     0.174 HD
ATOM     13  C           0     136.902 131.686 147.021  0.00  0.00     0.217 C 
ATOM     14  N           0     136.214 131.111 148.189  0.00  0.00    -0.191 N 
ATOM     15  N           0     137.577 132.936 147.373  0.00  0.00    -0.183 N 
ATOM     16  C           0     138.836 132.530 148.023  0.00  0.00     0.150 C 
ATOM     17  C           0     139.304 131.295 147.214  0.00  0.00     0.093 C 
ATOM     18  C           0     138.019 130.736 146.553  0.00  0.00     0.209 C 
ATOM     19  H           0     135.417 135.052 146.364  0.00  0.00     0.178 HD
ATOM     20  H           0     133.671 131.878 146.432  0.00  0.00     0.178 HD
ATOM     21  H           0     136.629 130.875 149.033  0.00  0.00     0.180 HD
ENDROOT
BRANCH   6  22
ATOM     22  C           0     136.831 133.294 144.231  0.00  0.00     0.208 C 
BRANCH  22  23
ATOM     23  O           0     136.582 132.250 143.254  0.00  0.00    -0.302 OA
BRANCH  23  24
ATOM     24  C           0     135.638 132.422 142.309  0.00  0.00     0.358 C 
ATOM     25  N           0     135.894 133.191 141.232  0.00  0.00    -0.346 N 
ATOM     26  H           0     136.759 133.621 141.138  0.00  0.00     0.161 HD
ATOM     27  H           0     135.214 133.316 140.552  0.00  0.00     0.161 HD
ATOM     28  O           0     134.555 131.884 142.428  0.00  0.00    -0.239 OA
ENDBRANCH  23  24
ENDBRANCH  22  23
ENDBRANCH   6  22
BRANCH  18  29
ATOM     29  O           0     137.767 129.404 147.002  0.00  0.00    -0.362 OA
ATOM     30  H           0     137.595 128.871 146.213  0.00  0.00     0.213 HD
ENDBRANCH  18  29
BRANCH  18  31
ATOM     31  O           0     138.136 130.771 145.129  0.00  0.00    -0.362 OA
ATOM     32  H           0     138.574 131.603 144.905  0.00  0.00     0.213 HD
ENDBRANCH  18  31
TORSDOF 5
ENDMDL
MODEL 5
REMARK VINA RESULT:      -6.7      2.553      3.517
REMARK  5 active torsions:
REMARK  status: ('A' for Active; 'I' for Inactive)
REMARK    1  A    between atoms: C_6  and  C_7 
REMARK    2  A    between atoms: C_7  and  O_8 
REMARK    3  A    between atoms: O_8  and  C_9 
REMARK       I    between atoms: C_9  and  N_10 
REMARK    4  A    between atoms: C_23  and  O_24 
REMARK    5  A    between atoms: C_23  and  O_25 
ROOT
ATOM      1  N           0     135.854 134.849 147.503  0.00  0.00    -0.235 N 
ATOM      2  H           0     135.091 134.770 148.097  0.00  0.00     0.174 HD
ATOM      3  H           0     136.348 135.683 147.458  0.00  0.00     0.174 HD
ATOM      4  C           0     136.217 133.835 146.769  0.00  0.00     0.672 C 
ATOM      5  N           0     135.548 132.624 146.802  0.00  0.00    -0.218 N 
ATOM      6  C           0     135.562 131.793 145.601  0.00  0.00     0.151 C 
ATOM      7  C           0     136.962 131.572 145.061  0.00  0.00     0.180 C 
ATOM      8  N           0     137.651 130.565 145.894  0.00  0.00    -0.216 N 
ATOM      9  C           0     138.955 130.972 146.042  0.00  0.00     0.670 C 
ATOM     10  N           0     139.933 130.185 146.394  0.00  0.00    -0.235 N 
ATOM     11  H           0     139.761 129.247 146.568  0.00  0.00     0.174 HD
ATOM     12  H           0     140.832 130.538 146.479  0.00  0.00     0.174 HD
ATOM     13  C           0     137.861 132.795 145.146  0.00  0.00     0.217 C 
ATOM     14  N           0     139.101 132.311 145.775  0.00  0.00    -0.191 N 
ATOM     15  N           0     137.283 133.901 145.910  0.00  0.00    -0.183 N 
ATOM     16  C           0     138.053 135.094 145.512  0.00  0.00     0.150 C 
ATOM     17  C           0     138.298 134.903 143.996  0.00  0.00     0.093 C 
ATOM     18  C           0     138.173 133.377 143.756  0.00  0.00     0.209 C 
ATOM     19  H           0     135.082 132.335 147.601  0.00  0.00     0.178 HD
ATOM     20  H           0     137.256 129.762 146.269  0.00  0.00     0.178 HD
ATOM     21  H           0     139.887 132.845 145.965  0.00  0.00     0.180 HD
ENDROOT
BRANCH   6  22
ATOM     22  C           0     134.717 132.471 144.521  0.00  0.00     0.208 C 
BRANCH  22  23
ATOM     23  O           0     134.628 131.604 143.361  0.00  0.00    -0.302 OA
BRANCH  23  24
ATOM     24  C           0     134.117 132.074 142.207  0.00  0.00     0.358 C 
ATOM     25  N           0     132.856 131.758 141.850  0.00  0.00    -0.346 N 
ATOM     26  H           0     132.316 131.192 142.425  0.00  0.00     0.161 HD
ATOM     27  H           0     132.488 132.096 141.019  0.00  0.00     0.161 HD
ATOM     28  O           0     134.792 132.783 141.487  0.00  0.00    -0.239 OA
ENDBRANCH  23  24
ENDBRANCH  22  23
ENDBRANCH   6  22
BRANCH  18  29
ATOM     29  O           0     139.402 132.850 143.254  0.00  0.00    -0.362 OA
ATOM     30  H           0     139.836 133.566 142.770  0.00  0.00     0.213 HD
ENDBRANCH  18  29
BRANCH  18  31
ATOM     31  O           0     137.102 133.101 142.851  0.00  0.00    -0.362 OA
ATOM     32  H           0     136.431 133.783 142.996  0.00  0.00     0.213 HD
ENDBRANCH  18  31
TORSDOF 5
ENDMDL
MODEL 6
REMARK VINA RESULT:      -6.7      2.556      3.843
REMARK  5 active torsions:
REMARK  status: ('A' for Active; 'I' for Inactive)
REMARK    1  A    between atoms: C_6  and  C_7 
REMARK    2  A    between atoms: C_7  and  O_8 
REMARK    3  A    between atoms: O_8  and  C_9 
REMARK       I    between atoms: C_9  and  N_10 
REMARK    4  A    between atoms: C_23  and  O_24 
REMARK    5  A    between atoms: C_23  and  O_25 
ROOT
ATOM      1  N           0     136.006 132.858 141.231  0.00  0.00    -0.235 N 
ATOM      2  H           0     136.113 133.597 140.613  0.00  0.00     0.174 HD
ATOM      3  H           0     135.653 132.010 140.918  0.00  0.00     0.174 HD
ATOM      4  C           0     136.339 133.001 142.483  0.00  0.00     0.672 C 
ATOM      5  N           0     136.852 134.188 142.978  0.00  0.00    -0.218 N 
ATOM      6  C           0     136.622 134.508 144.384  0.00  0.00     0.151 C 
ATOM      7  C           0     137.012 133.374 145.312  0.00  0.00     0.180 C 
ATOM      8  N           0     138.483 133.342 145.451  0.00  0.00    -0.216 N 
ATOM      9  C           0     138.871 132.025 145.460  0.00  0.00     0.670 C 
ATOM     10  N           0     140.014 131.600 145.919  0.00  0.00    -0.235 N 
ATOM     11  H           0     140.654 132.232 146.284  0.00  0.00     0.174 HD
ATOM     12  H           0     140.225 130.654 145.896  0.00  0.00     0.174 HD
ATOM     13  C           0     136.665 131.991 144.784  0.00  0.00     0.217 C 
ATOM     14  N           0     137.904 131.209 144.926  0.00  0.00    -0.191 N 
ATOM     15  N           0     136.201 131.989 143.396  0.00  0.00    -0.183 N 
ATOM     16  C           0     135.508 130.699 143.219  0.00  0.00     0.150 C 
ATOM     17  C           0     134.764 130.476 144.558  0.00  0.00     0.093 C 
ATOM     18  C           0     135.535 131.333 145.594  0.00  0.00     0.209 C 
ATOM     19  H           0     137.351 134.791 142.406  0.00  0.00     0.178 HD
ATOM     20  H           0     139.069 134.112 145.523  0.00  0.00     0.178 HD
ATOM     21  H           0     138.017 130.276 144.687  0.00  0.00     0.180 HD
ENDROOT
BRANCH   6  22
ATOM     22  C           0     135.138 134.820 144.583  0.00  0.00     0.208 C 
BRANCH  22  23
ATOM     23  O           0     134.836 136.121 144.015  0.00  0.00    -0.302 OA
BRANCH  23  24
ATOM     24  C           0     134.363 136.214 142.758  0.00  0.00     0.358 C 
ATOM     25  N           0     134.418 137.391 142.102  0.00  0.00    -0.346 N 
ATOM     26  H           0     134.799 138.171 142.536  0.00  0.00     0.161 HD
ATOM     27  H           0     134.077 137.458 141.197  0.00  0.00     0.161 HD
ATOM     28  O           0     133.887 135.237 142.214  0.00  0.00    -0.239 OA
ENDBRANCH  23  24
ENDBRANCH  22  23
ENDBRANCH   6  22
BRANCH  18  29
ATOM     29  O           0     136.073 130.502 146.625  0.00  0.00    -0.362 OA
ATOM     30  H           0     136.218 129.629 146.233  0.00  0.00     0.213 HD
ENDBRANCH  18  29
BRANCH  18  31
ATOM     31  O           0     134.678 132.330 146.153  0.00  0.00    -0.362 OA
ATOM     32  H           0     133.830 132.259 145.692  0.00  0.00     0.213 HD
ENDBRANCH  18  31
TORSDOF 5
ENDMDL
MODEL 7
REMARK VINA RESULT:      -6.7      2.966      4.989
REMARK  5 active torsions:
REMARK  status: ('A' for Active; 'I' for Inactive)
REMARK    1  A    between atoms: C_6  and  C_7 
REMARK    2  A    between atoms: C_7  and  O_8 
REMARK    3  A    between atoms: O_8  and  C_9 
REMARK       I    between atoms: C_9  and  N_10 
REMARK    4  A    between atoms: C_23  and  O_24 
REMARK    5  A    between atoms: C_23  and  O_25 
ROOT
ATOM      1  N           0     139.679 130.404 146.638  0.00  0.00    -0.235 N 
ATOM      2  H           0     140.507 130.483 146.140  0.00  0.00     0.174 HD
ATOM      3  H           0     139.572 129.695 147.292  0.00  0.00     0.174 HD
ATOM      4  C           0     138.710 131.253 146.434  0.00  0.00     0.672 C 
ATOM      5  N           0     138.816 132.283 145.516  0.00  0.00    -0.218 N 
ATOM      6  C           0     137.594 132.776 144.886  0.00  0.00     0.151 C 
ATOM      7  C           0     136.514 133.116 145.893  0.00  0.00     0.180 C 
ATOM      8  N           0     136.833 134.412 146.529  0.00  0.00    -0.216 N 
ATOM      9  C           0     136.512 134.310 147.861  0.00  0.00     0.670 C 
ATOM     10  N           0     136.316 135.331 148.647  0.00  0.00    -0.235 N 
ATOM     11  H           0     136.394 136.233 148.299  0.00  0.00     0.174 HD
ATOM     12  H           0     136.091 135.188 149.580  0.00  0.00     0.174 HD
ATOM     13  C           0     136.425 132.148 147.061  0.00  0.00     0.217 C 
ATOM     14  N           0     136.423 133.001 148.262  0.00  0.00    -0.191 N 
ATOM     15  N           0     137.520 131.179 147.109  0.00  0.00    -0.183 N 
ATOM     16  C           0     137.043 130.093 147.985  0.00  0.00     0.150 C 
ATOM     17  C           0     135.545 129.942 147.625  0.00  0.00     0.093 C 
ATOM     18  C           0     135.137 131.307 147.015  0.00  0.00     0.209 C 
ATOM     19  H           0     139.678 132.669 145.298  0.00  0.00     0.178 HD
ATOM     20  H           0     137.202 135.193 146.087  0.00  0.00     0.178 HD
ATOM     21  H           0     136.366 132.690 149.179  0.00  0.00     0.180 HD
ENDROOT
BRANCH   6  22
ATOM     22  C           0     137.062 131.702 143.936  0.00  0.00     0.208 C 
BRANCH  22  23
ATOM     23  O           0     136.918 132.260 142.604  0.00  0.00    -0.302 OA
BRANCH  23  24
ATOM     24  C           0     135.696 132.573 142.133  0.00  0.00     0.358 C 
ATOM     25  N           0     135.574 133.258 140.978  0.00  0.00    -0.346 N 
ATOM     26  H           0     136.367 133.526 140.486  0.00  0.00     0.161 HD
ATOM     27  H           0     134.694 133.484 140.639  0.00  0.00     0.161 HD
ATOM     28  O           0     134.704 132.238 142.748  0.00  0.00    -0.239 OA
ENDBRANCH  23  24
ENDBRANCH  22  23
ENDBRANCH   6  22
BRANCH  18  29
ATOM     29  O           0     134.111 131.917 147.800  0.00  0.00    -0.362 OA
ATOM     30  H           0     133.954 131.334 148.557  0.00  0.00     0.213 HD
ENDBRANCH  18  29
BRANCH  18  31
ATOM     31  O           0     134.702 131.140 145.665  0.00  0.00    -0.362 OA
ATOM     32  H           0     134.571 130.191 145.529  0.00  0.00     0.213 HD
ENDBRANCH  18  31
TORSDOF 5
ENDMDL
MODEL 8
REMARK VINA RESULT:      -6.6      2.861      4.227
REMARK  5 active torsions:
REMARK  status: ('A' for Active; 'I' for Inactive)
REMARK    1  A    between atoms: C_6  and  C_7 
REMARK    2  A    between atoms: C_7  and  O_8 
REMARK    3  A    between atoms: O_8  and  C_9 
REMARK       I    between atoms: C_9  and  N_10 
REMARK    4  A    between atoms: C_23  and  O_24 
REMARK    5  A    between atoms: C_23  and  O_25 
ROOT
ATOM      1  N           0     135.999 134.667 147.039  0.00  0.00    -0.235 N 
ATOM      2  H           0     135.500 135.365 146.588  0.00  0.00     0.174 HD
ATOM      3  H           0     136.503 134.874 147.842  0.00  0.00     0.174 HD
ATOM      4  C           0     135.989 133.451 146.571  0.00  0.00     0.672 C 
ATOM      5  N           0     135.281 133.105 145.433  0.00  0.00    -0.218 N 
ATOM      6  C           0     135.769 131.989 144.627  0.00  0.00     0.151 C 
ATOM      7  C           0     136.025 130.742 145.451  0.00  0.00     0.180 C 
ATOM      8  N           0     134.735 130.091 145.761  0.00  0.00    -0.216 N 
ATOM      9  C           0     134.802 129.632 147.054  0.00  0.00     0.670 C 
ATOM     10  N           0     134.020 128.713 147.547  0.00  0.00    -0.235 N 
ATOM     11  H           0     133.338 128.308 146.990  0.00  0.00     0.174 HD
ATOM     12  H           0     134.122 128.435 148.471  0.00  0.00     0.174 HD
ATOM     13  C           0     136.635 131.014 146.817  0.00  0.00     0.217 C 
ATOM     14  N           0     135.794 130.262 147.763  0.00  0.00    -0.191 N 
ATOM     15  N           0     136.683 132.432 147.171  0.00  0.00    -0.183 N 
ATOM     16  C           0     137.672 132.530 148.260  0.00  0.00     0.150 C 
ATOM     17  C           0     138.781 131.527 147.860  0.00  0.00     0.093 C 
ATOM     18  C           0     138.090 130.521 146.904  0.00  0.00     0.209 C 
ATOM     19  H           0     134.481 133.591 145.178  0.00  0.00     0.178 HD
ATOM     20  H           0     133.977 130.003 145.161  0.00  0.00     0.178 HD
ATOM     21  H           0     135.922 130.217 148.724  0.00  0.00     0.180 HD
ENDROOT
BRANCH   6  22
ATOM     22  C           0     137.073 132.406 143.946  0.00  0.00     0.208 C 
BRANCH  22  23
ATOM     23  O           0     136.810 133.493 143.020  0.00  0.00    -0.302 OA
BRANCH  23  24
ATOM     24  C           0     137.428 134.679 143.179  0.00  0.00     0.358 C 
ATOM     25  N           0     136.727 135.754 143.588  0.00  0.00    -0.346 N 
ATOM     26  H           0     135.776 135.675 143.767  0.00  0.00     0.161 HD
ATOM     27  H           0     137.172 136.609 143.702  0.00  0.00     0.161 HD
ATOM     28  O           0     138.618 134.778 142.955  0.00  0.00    -0.239 OA
ENDBRANCH  23  24
ENDBRANCH  22  23
ENDBRANCH   6  22
BRANCH  18  29
ATOM     29  O           0     138.142 129.201 147.449  0.00  0.00    -0.362 OA
ATOM     30  H           0     137.491 128.674 146.966  0.00  0.00     0.213 HD
ENDBRANCH  18  29
BRANCH  18  31
ATOM     31  O           0     138.704 130.555 145.615  0.00  0.00    -0.362 OA
ATOM     32  H           0     138.448 131.393 145.205  0.00  0.00     0.213 HD
ENDBRANCH  18  31
TORSDOF 5
ENDMDL
MODEL 9
REMARK VINA RESULT:      -6.6      2.680      4.492
REMARK  5 active torsions:
REMARK  status: ('A' for Active; 'I' for Inactive)
REMARK    1  A    between atoms: C_6  and  C_7 
REMARK    2  A    between atoms: C_7  and  O_8 
REMARK    3  A    between atoms: O_8  and  C_9 
REMARK       I    between atoms: C_9  and  N_10 
REMARK    4  A    between atoms: C_23  and  O_24 
REMARK    5  A    between atoms: C_23  and  O_25 
ROOT
ATOM      1  N           0     134.830 129.804 145.514  0.00  0.00    -0.235 N 
ATOM      2  H           0     134.462 129.341 144.745  0.00  0.00     0.174 HD
ATOM      3  H           0     134.605 129.509 146.411  0.00  0.00     0.174 HD
ATOM      4  C           0     135.629 130.820 145.345  0.00  0.00     0.672 C 
ATOM      5  N           0     135.984 131.276 144.087  0.00  0.00    -0.218 N 
ATOM      6  C           0     136.320 132.688 143.932  0.00  0.00     0.151 C 
ATOM      7  C           0     137.352 133.156 144.940  0.00  0.00     0.180 C 
ATOM      8  N           0     138.689 132.684 144.522  0.00  0.00    -0.216 N 
ATOM      9  C           0     139.364 132.295 145.653  0.00  0.00     0.670 C 
ATOM     10  N           0     140.659 132.170 145.727  0.00  0.00    -0.235 N 
ATOM     11  H           0     141.209 132.356 144.949  0.00  0.00     0.174 HD
ATOM     12  H           0     141.072 131.891 146.558  0.00  0.00     0.174 HD
ATOM     13  C           0     137.175 132.568 146.330  0.00  0.00     0.217 C 
ATOM     14  N           0     138.506 132.055 146.697  0.00  0.00    -0.191 N 
ATOM     15  N           0     136.168 131.509 146.399  0.00  0.00    -0.183 N 
ATOM     16  C           0     135.823 131.391 147.828  0.00  0.00     0.150 C 
ATOM     17  C           0     135.825 132.850 148.345  0.00  0.00     0.093 C 
ATOM     18  C           0     136.725 133.628 147.350  0.00  0.00     0.209 C 
ATOM     19  H           0     136.009 130.673 143.328  0.00  0.00     0.178 HD
ATOM     20  H           0     139.029 132.655 143.613  0.00  0.00     0.178 HD
ATOM     21  H           0     138.737 131.623 147.534  0.00  0.00     0.180 HD
ENDROOT
BRANCH   6  22
ATOM     22  C           0     135.048 133.520 144.107  0.00  0.00     0.208 C 
BRANCH  22  23
ATOM     23  O           0     135.317 134.899 143.741  0.00  0.00    -0.302 OA
BRANCH  23  24
ATOM     24  C           0     134.517 135.531 142.861  0.00  0.00     0.358 C 
ATOM     25  N           0     134.591 136.869 142.724  0.00  0.00    -0.346 N 
ATOM     26  H           0     135.220 137.378 143.260  0.00  0.00     0.161 HD
ATOM     27  H           0     134.014 137.325 142.091  0.00  0.00     0.161 HD
ATOM     28  O           0     133.729 134.893 142.190  0.00  0.00    -0.239 OA
ENDBRANCH  23  24
ENDBRANCH  22  23
ENDBRANCH   6  22
BRANCH  18  29
ATOM     29  O           0     137.852 134.184 148.029  0.00  0.00    -0.362 OA
ATOM     30  H           0     137.837 133.832 148.930  0.00  0.00     0.213 HD
ENDBRANCH  18  29
BRANCH  18  31
ATOM     31  O           0     135.975 134.656 146.700  0.00  0.00    -0.362 OA
ATOM     32  H           0     135.784 135.328 147.369  0.00  0.00     0.213 HD
ENDBRANCH  18  31
TORSDOF 5
ENDMDL
