# created with PyMOL 2.3.4
@<TRIPOS>MOLECULE
ligand_out_0001
28 30 1                 
SMALL
USER_CHARGES
@<TRIPOS>ATOM
1	   N	135.928	134.700	146.889	N.3	1	UNK0	-0.235	
2	   N	136.336	135.039	144.596	N.3	1	UNK0	-0.218	
3	   N	134.841	133.884	142.164	N.3	1	UNK0	-0.216	
4	   N	132.617	133.188	141.754	N.3	1	UNK0	-0.235	
5	   N	133.857	132.453	143.629	N.3	1	UNK0	-0.191	
6	   N	135.474	133.004	145.341	N.3	1	UNK0	-0.183	
7	   C	135.910	134.264	145.661	C.3	1	UNK0	0.672	
8	   C	136.877	134.364	143.420	C.3	1	UNK0	0.150	
9	   C	135.964	133.271	142.903	C.3	1	UNK0	0.180	
10	   C	133.705	133.175	142.472	C.3	1	UNK0	0.670	
11	   C	135.283	132.460	143.995	C.3	1	UNK0	0.217	
12	   C	135.157	131.895	146.259	C.3	1	UNK0	0.150	
13	   C	135.734	130.642	145.561	C.3	1	UNK0	0.093	
14	   C	135.815	131.019	144.058	C.3	1	UNK0	0.209	
15	   C	138.228	133.746	143.784	C.2	1	UNK0	0.192	
16	   O	134.994	130.145	143.281	O.2	1	UNK0	-0.362	
17	   O	137.168	130.968	143.604	O.2	1	UNK0	-0.362	
18	   O	138.732	133.009	142.668	O.2	1	UNK0	-0.399	
19	   H	136.248	135.596	147.080	 H	1	UNK0	0.174	
20	   H	135.619	134.131	147.610	 H	1	UNK0	0.174	
21	   H	132.575	133.721	140.945	 H	1	UNK0	0.174	
22	   H	131.849	132.663	142.029	 H	1	UNK0	0.174	
23	   H	136.277	136.007	144.632	 H	1	UNK0	0.178	
24	   H	134.895	134.648	141.570	 H	1	UNK0	0.178	
25	   H	133.147	132.010	144.119	 H	1	UNK0	0.180	
26	   H	134.146	130.075	143.741	 H	1	UNK0	0.213	
27	   H	137.498	130.081	143.806	 H	1	UNK0	0.213	
28	   H	138.461	133.486	141.873	 H	1	UNK0	0.209	
@<TRIPOS>BOND
1 1 7 1
2 1 19 1
3 1 20 1
4 2 8 1
5 2 23 1
6 3 10 1
7 3 24 1
8 4 21 1
9 4 22 1
10 5 25 1
11 6 12 1
12 2 7 1
13 6 7 1
14 8 9 1
15 8 15 1
16 3 9 1
17 9 11 1
18 4 10 1
19 5 10 1
20 5 11 1
21 6 11 1
22 11 14 1
23 12 13 1
24 13 14 1
25 14 16 2
26 14 17 2
27 15 18 2
28 16 26 1
29 17 27 1
30 18 28 1
@<TRIPOS>SUBSTRUCTURE
1	UNK0	1	GROUP	1 ****	UNK
