MODEL 1
REMARK VINA RESULT:      -7.3      0.000      0.000
REMARK  4 active torsions:
REMARK  status: ('A' for Active; 'I' for Inactive)
REMARK    1  A    between atoms: C_6  and  C_7 
REMARK    2  A    between atoms: C_7  and  O_8 
REMARK    3  A    between atoms: C_20  and  O_21 
REMARK    4  A    between atoms: C_20  and  O_22 
ROOT
ATOM      1  N           0     135.928 134.700 146.889  0.00  0.00    -0.235 N 
ATOM      2  H           0     136.248 135.596 147.080  0.00  0.00     0.174 HD
ATOM      3  H           0     135.619 134.131 147.610  0.00  0.00     0.174 HD
ATOM      4  C           0     135.910 134.264 145.661  0.00  0.00     0.672 C 
ATOM      5  N           0     136.336 135.039 144.596  0.00  0.00    -0.218 N 
ATOM      6  C           0     136.877 134.364 143.420  0.00  0.00     0.150 C 
ATOM      7  C           0     135.964 133.271 142.903  0.00  0.00     0.180 C 
ATOM      8  N           0     134.841 133.884 142.164  0.00  0.00    -0.216 N 
ATOM      9  C           0     133.705 133.175 142.472  0.00  0.00     0.670 C 
ATOM     10  N           0     132.617 133.188 141.754  0.00  0.00    -0.235 N 
ATOM     11  H           0     132.575 133.721 140.945  0.00  0.00     0.174 HD
ATOM     12  H           0     131.849 132.663 142.029  0.00  0.00     0.174 HD
ATOM     13  C           0     135.283 132.460 143.995  0.00  0.00     0.217 C 
ATOM     14  N           0     133.857 132.453 143.629  0.00  0.00    -0.191 N 
ATOM     15  N           0     135.474 133.004 145.341  0.00  0.00    -0.183 N 
ATOM     16  C           0     135.157 131.895 146.259  0.00  0.00     0.150 C 
ATOM     17  C           0     135.734 130.642 145.561  0.00  0.00     0.093 C 
ATOM     18  C           0     135.815 131.019 144.058  0.00  0.00     0.209 C 
ATOM     19  H           0     136.277 136.007 144.632  0.00  0.00     0.178 HD
ATOM     20  H           0     134.895 134.648 141.570  0.00  0.00     0.178 HD
ATOM     21  H           0     133.147 132.010 144.119  0.00  0.00     0.180 HD
ENDROOT
BRANCH  18  22
ATOM     22  O           0     134.994 130.145 143.281  0.00  0.00    -0.362 OA
ATOM     23  H           0     134.146 130.075 143.741  0.00  0.00     0.213 HD
ENDBRANCH  18  22
BRANCH  18  24
ATOM     24  O           0     137.168 130.968 143.604  0.00  0.00    -0.362 OA
ATOM     25  H           0     137.498 130.081 143.806  0.00  0.00     0.213 HD
ENDBRANCH  18  24
BRANCH   6  26
ATOM     26  C           0     138.228 133.746 143.784  0.00  0.00     0.192 C 
BRANCH  26  27
ATOM     27  O           0     138.732 133.009 142.668  0.00  0.00    -0.399 OA
ATOM     28  H           0     138.461 133.486 141.873  0.00  0.00     0.209 HD
ENDBRANCH  26  27
ENDBRANCH   6  26
TORSDOF 4
ENDMDL
MODEL 2
REMARK VINA RESULT:      -7.1      1.736      2.495
REMARK  4 active torsions:
REMARK  status: ('A' for Active; 'I' for Inactive)
REMARK    1  A    between atoms: C_6  and  C_7 
REMARK    2  A    between atoms: C_7  and  O_8 
REMARK    3  A    between atoms: C_20  and  O_21 
REMARK    4  A    between atoms: C_20  and  O_22 
ROOT
ATOM      1  N           0     134.888 131.969 146.652  0.00  0.00    -0.235 N 
ATOM      2  H           0     135.158 132.037 147.581  0.00  0.00     0.174 HD
ATOM      3  H           0     134.202 131.335 146.392  0.00  0.00     0.174 HD
ATOM      4  C           0     135.445 132.733 145.755  0.00  0.00     0.672 C 
ATOM      5  N           0     136.424 133.656 146.077  0.00  0.00    -0.218 N 
ATOM      6  C           0     137.409 134.005 145.058  0.00  0.00     0.150 C 
ATOM      7  C           0     136.773 134.396 143.739  0.00  0.00     0.180 C 
ATOM      8  N           0     136.241 135.771 143.845  0.00  0.00    -0.216 N 
ATOM      9  C           0     135.039 135.804 143.182  0.00  0.00     0.670 C 
ATOM     10  N           0     134.466 136.896 142.759  0.00  0.00    -0.235 N 
ATOM     11  H           0     134.891 137.755 142.905  0.00  0.00     0.174 HD
ATOM     12  H           0     133.615 136.848 142.295  0.00  0.00     0.174 HD
ATOM     13  C           0     135.557 133.563 143.363  0.00  0.00     0.217 C 
ATOM     14  N           0     134.516 134.545 143.021  0.00  0.00    -0.191 N 
ATOM     15  N           0     135.102 132.669 144.429  0.00  0.00    -0.183 N 
ATOM     16  C           0     134.255 131.665 143.760  0.00  0.00     0.150 C 
ATOM     17  C           0     134.974 131.390 142.418  0.00  0.00     0.093 C 
ATOM     18  C           0     135.835 132.652 142.156  0.00  0.00     0.209 C 
ATOM     19  H           0     136.453 134.061 146.958  0.00  0.00     0.178 HD
ATOM     20  H           0     136.664 136.516 144.301  0.00  0.00     0.178 HD
ATOM     21  H           0     133.615 134.339 142.727  0.00  0.00     0.180 HD
ENDROOT
BRANCH  18  22
ATOM     22  O           0     135.431 133.288 140.942  0.00  0.00    -0.362 OA
ATOM     23  H           0     135.671 132.691 140.220  0.00  0.00     0.213 HD
ENDBRANCH  18  22
BRANCH  18  24
ATOM     24  O           0     137.220 132.308 142.102  0.00  0.00    -0.362 OA
ATOM     25  H           0     137.718 133.132 142.199  0.00  0.00     0.213 HD
ENDBRANCH  18  24
BRANCH   6  26
ATOM     26  C           0     138.324 132.801 144.824  0.00  0.00     0.192 C 
BRANCH  26  27
ATOM     27  O           0     139.226 133.088 143.753  0.00  0.00    -0.399 OA
ATOM     28  H           0     139.325 134.048 143.720  0.00  0.00     0.209 HD
ENDBRANCH  26  27
ENDBRANCH   6  26
TORSDOF 4
ENDMDL
MODEL 3
REMARK VINA RESULT:      -6.4      1.918      2.196
REMARK  4 active torsions:
REMARK  status: ('A' for Active; 'I' for Inactive)
REMARK    1  A    between atoms: C_6  and  C_7 
REMARK    2  A    between atoms: C_7  and  O_8 
REMARK    3  A    between atoms: C_20  and  O_21 
REMARK    4  A    between atoms: C_20  and  O_22 
ROOT
ATOM      1  N           0     135.927 134.756 147.587  0.00  0.00    -0.235 N 
ATOM      2  H           0     136.318 135.641 147.518  0.00  0.00     0.174 HD
ATOM      3  H           0     135.356 134.534 148.339  0.00  0.00     0.174 HD
ATOM      4  C           0     136.165 133.866 146.665  0.00  0.00     0.672 C 
ATOM      5  N           0     136.968 134.134 145.570  0.00  0.00    -0.218 N 
ATOM      6  C           0     137.688 133.025 144.951  0.00  0.00     0.150 C 
ATOM      7  C           0     136.787 131.851 144.629  0.00  0.00     0.180 C 
ATOM      8  N           0     136.003 132.158 143.414  0.00  0.00    -0.216 N 
ATOM      9  C           0     134.733 131.673 143.606  0.00  0.00     0.670 C 
ATOM     10  N           0     133.886 131.437 142.644  0.00  0.00    -0.235 N 
ATOM     11  H           0     134.139 131.603 141.723  0.00  0.00     0.174 HD
ATOM     12  H           0     133.002 131.093 142.849  0.00  0.00     0.174 HD
ATOM     13  C           0     135.729 131.570 145.685  0.00  0.00     0.217 C 
ATOM     14  N           0     134.465 131.469 144.937  0.00  0.00    -0.191 N 
ATOM     15  N           0     135.642 132.600 146.721  0.00  0.00    -0.183 N 
ATOM     16  C           0     134.929 131.963 147.844  0.00  0.00     0.150 C 
ATOM     17  C           0     135.472 130.515 147.871  0.00  0.00     0.093 C 
ATOM     18  C           0     136.000 130.256 146.436  0.00  0.00     0.209 C 
ATOM     19  H           0     137.049 135.037 145.224  0.00  0.00     0.178 HD
ATOM     20  H           0     136.327 132.617 142.624  0.00  0.00     0.178 HD
ATOM     21  H           0     133.593 131.285 145.318  0.00  0.00     0.180 HD
ENDROOT
BRANCH  18  22
ATOM     22  O           0     135.288 129.175 145.831  0.00  0.00    -0.362 OA
ATOM     23  H           0     135.703 128.358 146.141  0.00  0.00     0.213 HD
ENDBRANCH  18  22
BRANCH  18  24
ATOM     24  O           0     137.401 129.979 146.463  0.00  0.00    -0.362 OA
ATOM     25  H           0     137.706 130.166 147.362  0.00  0.00     0.213 HD
ENDBRANCH  18  24
BRANCH   6  26
ATOM     26  C           0     138.787 132.556 145.907  0.00  0.00     0.192 C 
BRANCH  26  27
ATOM     27  O           0     139.446 131.415 145.352  0.00  0.00    -0.399 OA
ATOM     28  H           0     140.344 131.693 145.128  0.00  0.00     0.209 HD
ENDBRANCH  26  27
ENDBRANCH   6  26
TORSDOF 4
ENDMDL
MODEL 4
REMARK VINA RESULT:      -6.3      2.385      3.803
REMARK  4 active torsions:
REMARK  status: ('A' for Active; 'I' for Inactive)
REMARK    1  A    between atoms: C_6  and  C_7 
REMARK    2  A    between atoms: C_7  and  O_8 
REMARK    3  A    between atoms: C_20  and  O_21 
REMARK    4  A    between atoms: C_20  and  O_22 
ROOT
ATOM      1  N           0     138.217 134.374 142.113  0.00  0.00    -0.235 N 
ATOM      2  H           0     138.572 135.221 141.800  0.00  0.00     0.174 HD
ATOM      3  H           0     138.555 133.542 141.746  0.00  0.00     0.174 HD
ATOM      4  C           0     137.291 134.354 143.029  0.00  0.00     0.672 C 
ATOM      5  N           0     136.781 135.514 143.587  0.00  0.00    -0.218 N 
ATOM      6  C           0     135.409 135.496 144.087  0.00  0.00     0.150 C 
ATOM      7  C           0     135.144 134.336 145.025  0.00  0.00     0.180 C 
ATOM      8  N           0     135.733 134.636 146.347  0.00  0.00    -0.216 N 
ATOM      9  C           0     136.285 133.474 146.828  0.00  0.00     0.670 C 
ATOM     10  N           0     136.565 133.261 148.083  0.00  0.00    -0.235 N 
ATOM     11  H           0     136.383 133.946 148.744  0.00  0.00     0.174 HD
ATOM     12  H           0     136.954 132.415 148.356  0.00  0.00     0.174 HD
ATOM     13  C           0     135.815 133.036 144.612  0.00  0.00     0.217 C 
ATOM     14  N           0     136.507 132.565 145.823  0.00  0.00    -0.191 N 
ATOM     15  N           0     136.754 133.184 143.498  0.00  0.00    -0.183 N 
ATOM     16  C           0     136.943 131.822 142.964  0.00  0.00     0.150 C 
ATOM     17  C           0     135.540 131.177 143.053  0.00  0.00     0.093 C 
ATOM     18  C           0     134.795 131.983 144.149  0.00  0.00     0.209 C 
ATOM     19  H           0     137.322 136.317 143.644  0.00  0.00     0.178 HD
ATOM     20  H           0     135.730 135.496 146.794  0.00  0.00     0.178 HD
ATOM     21  H           0     137.027 131.750 145.900  0.00  0.00     0.180 HD
ENDROOT
BRANCH  18  22
ATOM     22  O           0     134.427 131.128 145.233  0.00  0.00    -0.362 OA
ATOM     23  H           0     134.734 131.557 146.044  0.00  0.00     0.213 HD
ENDBRANCH  18  22
BRANCH  18  24
ATOM     24  O           0     133.639 132.619 143.601  0.00  0.00    -0.362 OA
ATOM     25  H           0     133.626 133.522 143.947  0.00  0.00     0.213 HD
ENDBRANCH  18  24
BRANCH   6  26
ATOM     26  C           0     134.452 135.396 142.897  0.00  0.00     0.192 C 
BRANCH  26  27
ATOM     27  O           0     134.337 136.675 142.268  0.00  0.00    -0.399 OA
ATOM     28  H           0     135.191 137.115 142.371  0.00  0.00     0.209 HD
ENDBRANCH  26  27
ENDBRANCH   6  26
TORSDOF 4
ENDMDL
MODEL 5
REMARK VINA RESULT:      -6.2      2.462      3.777
REMARK  4 active torsions:
REMARK  status: ('A' for Active; 'I' for Inactive)
REMARK    1  A    between atoms: C_6  and  C_7 
REMARK    2  A    between atoms: C_7  and  O_8 
REMARK    3  A    between atoms: C_20  and  O_21 
REMARK    4  A    between atoms: C_20  and  O_22 
ROOT
ATOM      1  N           0     139.074 130.831 145.751  0.00  0.00    -0.235 N 
ATOM      2  H           0     139.192 130.250 146.518  0.00  0.00     0.174 HD
ATOM      3  H           0     139.800 130.955 145.120  0.00  0.00     0.174 HD
ATOM      4  C           0     137.938 131.443 145.566  0.00  0.00     0.672 C 
ATOM      5  N           0     136.871 131.295 146.434  0.00  0.00    -0.218 N 
ATOM      6  C           0     135.921 132.397 146.559  0.00  0.00     0.150 C 
ATOM      7  C           0     135.407 132.879 145.217  0.00  0.00     0.180 C 
ATOM      8  N           0     134.395 131.927 144.714  0.00  0.00    -0.216 N 
ATOM      9  C           0     134.587 131.794 143.361  0.00  0.00     0.670 C 
ATOM     10  N           0     133.688 131.337 142.535  0.00  0.00    -0.235 N 
ATOM     11  H           0     132.817 131.066 142.866  0.00  0.00     0.174 HD
ATOM     12  H           0     133.889 131.270 141.588  0.00  0.00     0.174 HD
ATOM     13  C           0     136.459 132.908 144.120  0.00  0.00     0.217 C 
ATOM     14  N           0     135.843 132.201 142.985  0.00  0.00    -0.191 N 
ATOM     15  N           0     137.726 132.280 144.501  0.00  0.00    -0.183 N 
ATOM     16  C           0     138.718 132.788 143.536  0.00  0.00     0.150 C 
ATOM     17  C           0     138.322 134.268 143.322  0.00  0.00     0.093 C 
ATOM     18  C           0     136.822 134.344 143.709  0.00  0.00     0.209 C 
ATOM     19  H           0     136.757 130.479 146.946  0.00  0.00     0.178 HD
ATOM     20  H           0     133.718 131.476 145.243  0.00  0.00     0.178 HD
ATOM     21  H           0     136.252 132.053 142.119  0.00  0.00     0.180 HD
ENDROOT
BRANCH  18  22
ATOM     22  O           0     136.040 134.759 142.587  0.00  0.00    -0.362 OA
ATOM     23  H           0     136.571 135.403 142.099  0.00  0.00     0.213 HD
ENDBRANCH  18  22
BRANCH  18  24
ATOM     24  O           0     136.636 135.238 144.807  0.00  0.00    -0.362 OA
ATOM     25  H           0     137.452 135.751 144.892  0.00  0.00     0.213 HD
ENDBRANCH  18  24
BRANCH   6  26
ATOM     26  C           0     136.611 133.564 147.270  0.00  0.00     0.192 C 
BRANCH  26  27
ATOM     27  O           0     135.729 134.688 147.308  0.00  0.00    -0.399 OA
ATOM     28  H           0     135.811 135.078 148.188  0.00  0.00     0.209 HD
ENDBRANCH  26  27
ENDBRANCH   6  26
TORSDOF 4
ENDMDL
MODEL 6
REMARK VINA RESULT:      -6.2      8.437     10.765
REMARK  4 active torsions:
REMARK  status: ('A' for Active; 'I' for Inactive)
REMARK    1  A    between atoms: C_6  and  C_7 
REMARK    2  A    between atoms: C_7  and  O_8 
REMARK    3  A    between atoms: C_20  and  O_21 
REMARK    4  A    between atoms: C_20  and  O_22 
ROOT
ATOM      1  N           0     132.268 137.383 132.487  0.00  0.00    -0.235 N 
ATOM      2  H           0     131.510 137.979 132.382  0.00  0.00     0.174 HD
ATOM      3  H           0     133.027 137.452 131.886  0.00  0.00     0.174 HD
ATOM      4  C           0     132.269 136.492 133.438  0.00  0.00     0.672 C 
ATOM      5  N           0     131.214 136.358 134.324  0.00  0.00    -0.218 N 
ATOM      6  C           0     130.967 135.045 134.912  0.00  0.00     0.150 C 
ATOM      7  C           0     132.211 134.437 135.527  0.00  0.00     0.180 C 
ATOM      8  N           0     132.478 135.086 136.828  0.00  0.00    -0.216 N 
ATOM      9  C           0     133.836 135.256 136.936  0.00  0.00     0.670 C 
ATOM     10  N           0     134.462 135.455 138.062  0.00  0.00    -0.235 N 
ATOM     11  H           0     133.965 135.489 138.894  0.00  0.00     0.174 HD
ATOM     12  H           0     135.426 135.568 138.068  0.00  0.00     0.174 HD
ATOM     13  C           0     133.483 134.681 134.730  0.00  0.00     0.217 C 
ATOM     14  N           0     134.453 135.194 135.711  0.00  0.00    -0.191 N 
ATOM     15  N           0     133.313 135.623 133.622  0.00  0.00    -0.183 N 
ATOM     16  C           0     134.465 135.390 132.732  0.00  0.00     0.150 C 
ATOM     17  C           0     134.669 133.857 132.762  0.00  0.00     0.093 C 
ATOM     18  C           0     134.018 133.390 134.090  0.00  0.00     0.209 C 
ATOM     19  H           0     130.654 137.118 134.547  0.00  0.00     0.178 HD
ATOM     20  H           0     131.814 135.344 137.486  0.00  0.00     0.178 HD
ATOM     21  H           0     135.372 135.440 135.526  0.00  0.00     0.180 HD
ENDROOT
BRANCH  18  22
ATOM     22  O           0     134.994 132.777 134.934  0.00  0.00    -0.362 OA
ATOM     23  H           0     135.685 133.436 135.087  0.00  0.00     0.213 HD
ENDBRANCH  18  22
BRANCH  18  24
ATOM     24  O           0     132.945 132.484 133.827  0.00  0.00    -0.362 OA
ATOM     25  H           0     132.148 132.875 134.212  0.00  0.00     0.213 HD
ENDBRANCH  18  24
BRANCH   6  26
ATOM     26  C           0     130.447 134.106 133.822  0.00  0.00     0.192 C 
BRANCH  26  27
ATOM     27  O           0     130.186 132.818 134.386  0.00  0.00    -0.399 OA
ATOM     28  H           0     130.207 132.924 135.346  0.00  0.00     0.209 HD
ENDBRANCH  26  27
ENDBRANCH   6  26
TORSDOF 4
ENDMDL
MODEL 7
REMARK VINA RESULT:      -6.1      2.826      4.390
REMARK  4 active torsions:
REMARK  status: ('A' for Active; 'I' for Inactive)
REMARK    1  A    between atoms: C_6  and  C_7 
REMARK    2  A    between atoms: C_7  and  O_8 
REMARK    3  A    between atoms: C_20  and  O_21 
REMARK    4  A    between atoms: C_20  and  O_22 
ROOT
ATOM      1  N           0     135.149 130.546 143.290  0.00  0.00    -0.235 N 
ATOM      2  H           0     134.993 130.394 142.345  0.00  0.00     0.174 HD
ATOM      3  H           0     134.686 130.009 143.951  0.00  0.00     0.174 HD
ATOM      4  C           0     135.985 131.471 143.671  0.00  0.00     0.672 C 
ATOM      5  N           0     136.674 132.261 142.766  0.00  0.00    -0.218 N 
ATOM      6  C           0     137.067 133.605 143.180  0.00  0.00     0.150 C 
ATOM      7  C           0     137.799 133.616 144.507  0.00  0.00     0.180 C 
ATOM      8  N           0     139.189 133.159 144.299  0.00  0.00    -0.216 N 
ATOM      9  C           0     139.527 132.362 145.366  0.00  0.00     0.670 C 
ATOM     10  N           0     140.753 132.080 145.710  0.00  0.00    -0.235 N 
ATOM     11  H           0     141.495 132.442 145.202  0.00  0.00     0.174 HD
ATOM     12  H           0     140.922 131.510 146.476  0.00  0.00     0.174 HD
ATOM     13  C           0     137.243 132.641 145.533  0.00  0.00     0.217 C 
ATOM     14  N           0     138.416 131.897 146.023  0.00  0.00    -0.191 N 
ATOM     15  N           0     136.234 131.729 144.994  0.00  0.00    -0.183 N 
ATOM     16  C           0     135.515 131.204 146.170  0.00  0.00     0.150 C 
ATOM     17  C           0     135.408 132.415 147.126  0.00  0.00     0.093 C 
ATOM     18  C           0     136.557 133.366 146.702  0.00  0.00     0.209 C 
ATOM     19  H           0     136.888 131.929 141.881  0.00  0.00     0.178 HD
ATOM     20  H           0     139.760 133.381 143.547  0.00  0.00     0.178 HD
ATOM     21  H           0     138.405 131.201 146.698  0.00  0.00     0.180 HD
ENDROOT
BRANCH  18  22
ATOM     22  O           0     137.472 133.554 147.784  0.00  0.00    -0.362 OA
ATOM     23  H           0     138.291 133.898 147.401  0.00  0.00     0.213 HD
ENDBRANCH  18  22
BRANCH  18  24
ATOM     24  O           0     136.031 134.621 146.269  0.00  0.00    -0.362 OA
ATOM     25  H           0     136.787 135.166 146.007  0.00  0.00     0.213 HD
ENDBRANCH  18  24
BRANCH   6  26
ATOM     26  C           0     135.812 134.471 143.302  0.00  0.00     0.192 C 
BRANCH  26  27
ATOM     27  O           0     136.187 135.811 143.629  0.00  0.00    -0.399 OA
ATOM     28  H           0     135.949 136.361 142.871  0.00  0.00     0.209 HD
ENDBRANCH  26  27
ENDBRANCH   6  26
TORSDOF 4
ENDMDL
MODEL 8
REMARK VINA RESULT:      -6.0      9.491     11.091
REMARK  4 active torsions:
REMARK  status: ('A' for Active; 'I' for Inactive)
REMARK    1  A    between atoms: C_6  and  C_7 
REMARK    2  A    between atoms: C_7  and  O_8 
REMARK    3  A    between atoms: C_20  and  O_21 
REMARK    4  A    between atoms: C_20  and  O_22 
ROOT
ATOM      1  N           0     134.491 132.871 132.651  0.00  0.00    -0.235 N 
ATOM      2  H           0     134.534 132.119 132.040  0.00  0.00     0.174 HD
ATOM      3  H           0     135.302 133.345 132.894  0.00  0.00     0.174 HD
ATOM      4  C           0     133.344 133.247 133.142  0.00  0.00     0.672 C 
ATOM      5  N           0     132.160 132.607 132.823  0.00  0.00    -0.218 N 
ATOM      6  C           0     131.077 132.623 133.803  0.00  0.00     0.150 C 
ATOM      7  C           0     130.767 134.019 134.306  0.00  0.00     0.180 C 
ATOM      8  N           0     129.990 134.744 133.279  0.00  0.00    -0.216 N 
ATOM      9  C           0     130.445 136.040 133.253  0.00  0.00     0.670 C 
ATOM     10  N           0     129.778 137.040 132.750  0.00  0.00    -0.235 N 
ATOM     11  H           0     128.900 136.893 132.364  0.00  0.00     0.174 HD
ATOM     12  H           0     130.158 137.933 132.764  0.00  0.00     0.174 HD
ATOM     13  C           0     131.994 134.891 134.519  0.00  0.00     0.217 C 
ATOM     14  N           0     131.690 136.150 133.819  0.00  0.00    -0.191 N 
ATOM     15  N           0     133.234 134.299 134.014  0.00  0.00    -0.183 N 
ATOM     16  C           0     134.320 135.035 134.688  0.00  0.00     0.150 C 
ATOM     17  C           0     133.795 135.262 136.125  0.00  0.00     0.093 C 
ATOM     18  C           0     132.251 135.169 136.009  0.00  0.00     0.209 C 
ATOM     19  H           0     132.052 132.158 131.970  0.00  0.00     0.178 HD
ATOM     20  H           0     129.286 134.374 132.725  0.00  0.00     0.178 HD
ATOM     21  H           0     132.269 136.927 133.771  0.00  0.00     0.180 HD
ENDROOT
BRANCH  18  22
ATOM     22  O           0     131.647 136.403 136.403  0.00  0.00    -0.362 OA
ATOM     23  H           0     131.038 136.198 137.126  0.00  0.00     0.213 HD
ENDBRANCH  18  22
BRANCH  18  24
ATOM     24  O           0     131.756 134.093 136.808  0.00  0.00    -0.362 OA
ATOM     25  H           0     130.956 134.416 137.247  0.00  0.00     0.213 HD
ENDBRANCH  18  24
BRANCH   6  26
ATOM     26  C           0     131.475 131.748 134.993  0.00  0.00     0.192 C 
BRANCH  26  27
ATOM     27  O           0     130.346 131.566 135.850  0.00  0.00    -0.399 OA
ATOM     28  H           0     129.903 130.757 135.561  0.00  0.00     0.209 HD
ENDBRANCH  26  27
ENDBRANCH   6  26
TORSDOF 4
ENDMDL
MODEL 9
REMARK VINA RESULT:      -5.9      9.549     11.319
REMARK  4 active torsions:
REMARK  status: ('A' for Active; 'I' for Inactive)
REMARK    1  A    between atoms: C_6  and  C_7 
REMARK    2  A    between atoms: C_7  and  O_8 
REMARK    3  A    between atoms: C_20  and  O_21 
REMARK    4  A    between atoms: C_20  and  O_22 
ROOT
ATOM      1  N           0     130.586 133.416 131.120  0.00  0.00    -0.235 N 
ATOM      2  H           0     129.744 132.990 130.894  0.00  0.00     0.174 HD
ATOM      3  H           0     131.122 133.831 130.426  0.00  0.00     0.174 HD
ATOM      4  C           0     130.995 133.432 132.357  0.00  0.00     0.672 C 
ATOM      5  N           0     130.264 132.859 133.383  0.00  0.00    -0.218 N 
ATOM      6  C           0     130.985 132.356 134.550  0.00  0.00     0.150 C 
ATOM      7  C           0     131.939 133.379 135.132  0.00  0.00     0.180 C 
ATOM      8  N           0     131.169 134.376 135.906  0.00  0.00    -0.216 N 
ATOM      9  C           0     131.727 135.608 135.666  0.00  0.00     0.670 C 
ATOM     10  N           0     131.558 136.650 136.431  0.00  0.00    -0.235 N 
ATOM     11  H           0     131.010 136.583 137.228  0.00  0.00     0.174 HD
ATOM     12  H           0     131.983 137.492 136.203  0.00  0.00     0.174 HD
ATOM     13  C           0     132.671 134.211 134.091  0.00  0.00     0.217 C 
ATOM     14  N           0     132.483 135.607 134.520  0.00  0.00    -0.191 N 
ATOM     15  N           0     132.180 134.014 132.726  0.00  0.00    -0.183 N 
ATOM     16  C           0     133.253 134.518 131.849  0.00  0.00     0.150 C 
ATOM     17  C           0     134.560 134.077 132.550  0.00  0.00     0.093 C 
ATOM     18  C           0     134.171 133.877 134.038  0.00  0.00     0.209 C 
ATOM     19  H           0     129.298 132.792 133.328  0.00  0.00     0.178 HD
ATOM     20  H           0     130.409 134.194 136.479  0.00  0.00     0.178 HD
ATOM     21  H           0     132.837 136.391 134.074  0.00  0.00     0.180 HD
ENDROOT
BRANCH  18  22
ATOM     22  O           0     134.915 134.767 134.872  0.00  0.00    -0.362 OA
ATOM     23  H           0     134.352 135.538 135.030  0.00  0.00     0.213 HD
ENDBRANCH  18  22
BRANCH  18  24
ATOM     24  O           0     134.392 132.522 134.433  0.00  0.00    -0.362 OA
ATOM     25  H           0     133.676 132.287 135.040  0.00  0.00     0.213 HD
ENDBRANCH  18  24
BRANCH   6  26
ATOM     26  C           0     131.782 131.116 134.141  0.00  0.00     0.192 C 
BRANCH  26  27
ATOM     27  O           0     132.435 130.568 135.288  0.00  0.00    -0.399 OA
ATOM     28  H           0     133.050 131.241 135.608  0.00  0.00     0.209 HD
ENDBRANCH  26  27
ENDBRANCH   6  26
TORSDOF 4
ENDMDL
