# created with PyMOL 2.3.4
@<TRIPOS>MOLECULE
ligand_out_0001
68 71 1                 
SMALL
USER_CHARGES
@<TRIPOS>ATOM
1	   N	132.022	134.581	135.441	N.pl3	1	UNK0	-0.359	
2	   N	133.921	135.459	138.497	N.pl3	1	UNK0	-0.335	
3	   N	135.253	135.649	143.362	N.3	1	UNK0	-0.218	
4	   N	137.583	135.345	143.242	N.3	1	UNK0	-0.235	
5	   N	136.204	133.635	144.048	N.3	1	UNK0	-0.183	
6	   N	134.913	133.078	146.016	N.3	1	UNK0	-0.191	
7	   N	133.241	134.478	145.381	N.3	1	UNK0	-0.216	
8	   N	133.358	133.803	147.644	N.3	1	UNK0	-0.235	
9	   N	133.063	132.143	133.094	N.pl3	1	UNK0	-0.288	
10	   N	129.075	132.796	130.971	N.pl3	1	UNK0	-0.361	
11	   N	131.320	128.540	131.555	N.pl3	1	UNK0	-0.354	
12	   C	131.341	133.425	135.566	C.2	1	UNK0	0.219	
13	   C	132.342	135.375	136.631	C.3	1	UNK0	0.142	
14	   C	133.758	135.036	137.103	C.3	1	UNK0	0.144	
15	   C	133.257	134.818	139.478	C.2	1	UNK0	0.360	
16	   C	134.052	134.324	141.714	C.2	1	UNK0	0.208	
17	   C	133.995	134.952	143.107	C.3	1	UNK0	0.151	
18	   C	136.397	134.892	143.541	C.3	1	UNK0	0.672	
19	   C	134.946	133.075	144.545	C.3	1	UNK0	0.217	
20	   C	137.187	132.541	144.158	C.3	1	UNK0	0.150	
21	   C	133.716	133.862	144.123	C.3	1	UNK0	0.180	
22	   C	134.910	131.627	144.024	C.3	1	UNK0	0.209	
23	   C	133.809	133.787	146.422	C.3	1	UNK0	0.670	
24	   C	136.395	131.271	143.765	C.3	1	UNK0	0.093	
25	   C	131.012	132.610	134.342	C.3	1	UNK0	0.123	
26	   C	132.132	131.599	134.086	C.3	1	UNK0	0.144	
27	   C	134.208	132.748	133.431	C.2	1	UNK0	0.231	
28	   C	134.929	133.185	132.174	C.3	1	UNK0	0.087	
29	   C	133.987	132.730	131.041	C.3	1	UNK0	0.117	
30	   C	132.835	132.080	131.777	C.2	1	UNK0	0.227	
31	   C	135.099	134.704	132.157	C.3	1	UNK0	0.014	
32	   C	134.133	135.315	131.140	C.3	1	UNK0	0.001	
33	   C	133.960	136.807	131.431	C.3	1	UNK0	0.000	
34	   C	132.471	137.150	131.472	C.3	1	UNK0	0.000	
35	   C	131.712	136.044	132.209	C.3	1	UNK0	0.000	
36	   C	130.213	136.183	131.934	C.3	1	UNK0	0.009	
37	   C	129.793	135.162	130.876	C.3	1	UNK0	0.103	
38	   C	129.070	134.018	131.540	C.2	1	UNK0	0.217	
39	   C	128.373	131.684	131.617	C.3	1	UNK0	0.122	
40	   C	128.870	130.361	131.034	C.3	1	UNK0	0.021	
41	   C	129.098	129.358	132.168	C.3	1	UNK0	0.021	
42	   C	129.905	128.169	131.642	C.3	1	UNK0	0.123	
43	   C	132.195	128.080	132.470	C.2	1	UNK0	0.286	
44	   C	133.635	128.458	132.381	C.2	1	UNK0	0.212	
45	   C	134.352	128.383	131.057	C.3	1	UNK0	0.102	
46	   O	130.993	133.041	136.662	O.2	1	UNK0	-0.274	
47	   O	132.521	133.889	139.207	O.co2	1	UNK0	-0.239	
48	   O	133.407	135.207	140.758	O.2	1	UNK0	-0.302	
49	   O	134.352	130.753	145.007	O.2	1	UNK0	-0.362	
50	   O	134.160	131.556	142.810	O.2	1	UNK0	-0.362	
51	   O	134.609	132.914	134.563	O.2	1	UNK0	-0.273	
52	   O	131.861	131.581	131.254	O.2	1	UNK0	-0.273	
53	   O	128.483	134.197	132.586	O.2	1	UNK0	-0.274	
54	   O	131.811	127.359	133.369	O.2	1	UNK0	-0.265	
55	   O	134.226	128.822	133.368	O.2	1	UNK0	-0.288	
56	   H	132.301	134.889	134.564	 H	1	UNK0	0.162	
57	   H	134.509	136.201	138.712	 H	1	UNK0	0.164	
58	   H	135.285	136.618	143.405	 H	1	UNK0	0.178	
59	   H	137.684	136.239	142.880	 H	1	UNK0	0.174	
60	   H	138.365	134.788	143.383	 H	1	UNK0	0.174	
61	   H	132.638	135.234	145.456	 H	1	UNK0	0.178	
62	   H	132.571	134.326	147.864	 H	1	UNK0	0.174	
63	   H	133.807	133.290	148.334	 H	1	UNK0	0.174	
64	   H	135.558	132.649	146.600	 H	1	UNK0	0.180	
65	   H	135.001	130.053	145.159	 H	1	UNK0	0.213	
66	   H	133.251	131.335	143.056	 H	1	UNK0	0.213	
67	   H	129.546	132.652	130.135	 H	1	UNK0	0.162	
68	   H	131.627	129.116	130.837	 H	1	UNK0	0.162	
@<TRIPOS>BOND
1 1 12 1
2 1 13 1
3 1 56 1
4 2 15 1
5 2 57 1
6 3 18 1
7 3 58 1
8 4 59 1
9 4 60 1
10 5 19 1
11 5 20 1
12 6 23 1
13 6 64 1
14 7 23 1
15 7 61 1
16 8 62 1
17 8 63 1
18 9 27 1
19 9 30 1
20 10 39 1
21 10 67 1
22 11 43 1
23 11 68 1
24 12 25 1
25 12 46 2
26 13 14 1
27 2 14 1
28 15 47 2
29 15 48 2
30 16 17 1
31 3 17 1
32 17 21 1
33 4 18 1
34 5 18 1
35 6 19 1
36 19 21 1
37 19 22 1
38 20 24 1
39 7 21 1
40 22 24 1
41 22 49 2
42 22 50 2
43 8 23 1
44 25 26 1
45 9 26 1
46 27 28 1
47 27 51 2
48 28 29 1
49 28 31 1
50 29 30 1
51 30 52 2
52 31 32 1
53 32 33 1
54 33 34 1
55 34 35 1
56 35 36 1
57 36 37 1
58 37 38 1
59 10 38 1
60 38 53 2
61 39 40 1
62 40 41 1
63 41 42 1
64 11 42 1
65 43 44 1
66 43 54 2
67 44 45 1
68 44 55 2
69 16 48 2
70 49 65 1
71 50 66 1
@<TRIPOS>SUBSTRUCTURE
1	UNK0	1	GROUP	1 ****	UNK
