# created with PyMOL 2.3.4
@<TRIPOS>MOLECULE
ligand_out_0001
32 34 1                 
SMALL
USER_CHARGES
@<TRIPOS>ATOM
1	   N	138.884	130.494	146.002	N.3	1	UNK0	-0.235	
2	   N	136.718	131.381	145.774	N.3	1	UNK0	-0.218	
3	   N	135.500	133.033	143.470	N.3	1	UNK0	-0.211	
4	   N	135.865	133.142	141.135	N.3	1	UNK0	-0.235	
5	   N	137.630	133.248	142.706	N.3	1	UNK0	-0.191	
6	   N	138.538	132.488	144.819	N.3	1	UNK0	-0.183	
7	   N	133.747	131.607	148.571	N.pl3	1	UNK0	-0.346	
8	   C	138.082	131.416	145.547	C.3	1	UNK0	0.672	
9	   C	135.990	132.646	145.830	C.3	1	UNK0	0.151	
10	   C	136.270	133.532	144.631	C.3	1	UNK0	0.182	
11	   C	134.129	132.520	143.498	C.3	1	UNK0	0.169	
12	   C	136.305	133.141	142.362	C.3	1	UNK0	0.672	
13	   C	137.712	133.495	144.154	C.3	1	UNK0	0.217	
14	   C	139.939	132.884	144.602	C.3	1	UNK0	0.150	
15	   C	139.936	134.407	144.361	C.3	1	UNK0	0.093	
16	   C	138.442	134.827	144.420	C.3	1	UNK0	0.209	
17	   C	136.398	133.395	147.101	C.2	1	UNK0	0.208	
18	   C	135.043	131.972	148.521	C.2	1	UNK0	0.358	
19	   O	135.377	133.213	148.117	O.2	1	UNK0	-0.302	
20	   O	135.910	131.183	148.839	O.co2	1	UNK0	-0.239	
21	   O	138.144	135.790	143.408	O.2	1	UNK0	-0.362	
22	   O	138.108	135.331	145.715	O.2	1	UNK0	-0.362	
23	   H	138.528	129.753	146.517	 H	1	UNK0	0.174	
24	   H	139.835	130.547	145.821	 H	1	UNK0	0.174	
25	   H	134.914	133.064	140.961	 H	1	UNK0	0.174	
26	   H	136.488	133.221	140.396	 H	1	UNK0	0.174	
27	   H	136.255	130.536	145.892	 H	1	UNK0	0.178	
28	   H	138.382	133.175	142.099	 H	1	UNK0	0.180	
29	   H	133.055	132.237	148.317	 H	1	UNK0	0.161	
30	   H	133.506	130.713	148.861	 H	1	UNK0	0.161	
31	   H	138.680	136.571	143.598	 H	1	UNK0	0.213	
32	   H	138.253	136.288	145.688	 H	1	UNK0	0.213	
@<TRIPOS>BOND
1 1 8 1
2 1 23 1
3 1 24 1
4 2 9 1
5 2 27 1
6 3 11 1
7 3 12 1
8 4 25 1
9 4 26 1
10 5 28 1
11 6 14 1
12 7 29 1
13 7 30 1
14 2 8 1
15 6 8 1
16 9 10 1
17 9 17 1
18 3 10 1
19 10 13 1
20 4 12 1
21 5 12 1
22 5 13 1
23 6 13 1
24 13 16 1
25 14 15 1
26 15 16 1
27 16 21 2
28 16 22 2
29 17 19 2
30 7 18 1
31 18 20 2
32 18 19 2
33 21 31 1
34 22 32 1
@<TRIPOS>SUBSTRUCTURE
1	UNK0	1	GROUP	1 ****	UNK
