MODEL 1
REMARK VINA RESULT:      -7.5      0.000      0.000
REMARK  5 active torsions:
REMARK  status: ('A' for Active; 'I' for Inactive)
REMARK    1  A    between atoms: C_6  and  C_7 
REMARK    2  A    between atoms: C_7  and  O_8 
REMARK    3  A    between atoms: O_8  and  C_9 
REMARK       I    between atoms: C_9  and  N_10 
REMARK    4  A    between atoms: C_24  and  O_25 
REMARK    5  A    between atoms: C_24  and  O_26 
ROOT
ATOM      1  N           0     138.884 130.494 146.002  0.00  0.00    -0.235 N 
ATOM      2  H           0     138.528 129.753 146.517  0.00  0.00     0.174 HD
ATOM      3  H           0     139.835 130.547 145.821  0.00  0.00     0.174 HD
ATOM      4  C           0     138.082 131.416 145.547  0.00  0.00     0.672 C 
ATOM      5  N           0     136.718 131.381 145.774  0.00  0.00    -0.218 N 
ATOM      6  C           0     135.990 132.646 145.830  0.00  0.00     0.151 C 
ATOM      7  C           0     136.270 133.532 144.631  0.00  0.00     0.182 C 
ATOM      8  N           0     135.500 133.033 143.470  0.00  0.00    -0.211 N 
ATOM      9  C           0     134.129 132.520 143.498  0.00  0.00     0.169 C 
ATOM     10  C           0     136.305 133.141 142.362  0.00  0.00     0.672 C 
ATOM     11  N           0     135.865 133.142 141.135  0.00  0.00    -0.235 N 
ATOM     12  H           0     134.914 133.064 140.961  0.00  0.00     0.174 HD
ATOM     13  H           0     136.488 133.221 140.396  0.00  0.00     0.174 HD
ATOM     14  C           0     137.712 133.495 144.154  0.00  0.00     0.217 C 
ATOM     15  N           0     137.630 133.248 142.706  0.00  0.00    -0.191 N 
ATOM     16  N           0     138.538 132.488 144.819  0.00  0.00    -0.183 N 
ATOM     17  C           0     139.939 132.884 144.602  0.00  0.00     0.150 C 
ATOM     18  C           0     139.936 134.407 144.361  0.00  0.00     0.093 C 
ATOM     19  C           0     138.442 134.827 144.420  0.00  0.00     0.209 C 
ATOM     20  H           0     136.255 130.536 145.892  0.00  0.00     0.178 HD
ATOM     21  H           0     138.382 133.175 142.099  0.00  0.00     0.180 HD
ENDROOT
BRANCH   6  22
ATOM     22  C           0     136.398 133.395 147.101  0.00  0.00     0.208 C 
BRANCH  22  23
ATOM     23  O           0     135.377 133.213 148.117  0.00  0.00    -0.302 OA
BRANCH  23  24
ATOM     24  C           0     135.043 131.972 148.521  0.00  0.00     0.358 C 
ATOM     25  N           0     133.747 131.607 148.571  0.00  0.00    -0.346 N 
ATOM     26  H           0     133.055 132.237 148.317  0.00  0.00     0.161 HD
ATOM     27  H           0     133.506 130.713 148.861  0.00  0.00     0.161 HD
ATOM     28  O           0     135.910 131.183 148.839  0.00  0.00    -0.239 OA
ENDBRANCH  23  24
ENDBRANCH  22  23
ENDBRANCH   6  22
BRANCH  19  29
ATOM     29  O           0     138.144 135.790 143.408  0.00  0.00    -0.362 OA
ATOM     30  H           0     138.680 136.571 143.598  0.00  0.00     0.213 HD
ENDBRANCH  19  29
BRANCH  19  31
ATOM     31  O           0     138.108 135.331 145.715  0.00  0.00    -0.362 OA
ATOM     32  H           0     138.253 136.288 145.688  0.00  0.00     0.213 HD
ENDBRANCH  19  31
TORSDOF 5
ENDMDL
MODEL 2
REMARK VINA RESULT:      -7.2      2.678      4.724
REMARK  5 active torsions:
REMARK  status: ('A' for Active; 'I' for Inactive)
REMARK    1  A    between atoms: C_6  and  C_7 
REMARK    2  A    between atoms: C_7  and  O_8 
REMARK    3  A    between atoms: O_8  and  C_9 
REMARK       I    between atoms: C_9  and  N_10 
REMARK    4  A    between atoms: C_24  and  O_25 
REMARK    5  A    between atoms: C_24  and  O_26 
ROOT
ATOM      1  N           0     135.140 135.133 144.822  0.00  0.00    -0.235 N 
ATOM      2  H           0     134.182 134.991 144.873  0.00  0.00     0.174 HD
ATOM      3  H           0     135.491 136.031 144.710  0.00  0.00     0.174 HD
ATOM      4  C           0     135.956 134.121 144.912  0.00  0.00     0.672 C 
ATOM      5  N           0     135.503 132.825 145.079  0.00  0.00    -0.218 N 
ATOM      6  C           0     136.316 131.732 144.553  0.00  0.00     0.151 C 
ATOM      7  C           0     137.762 131.813 145.006  0.00  0.00     0.182 C 
ATOM      8  N           0     137.860 131.338 146.403  0.00  0.00    -0.211 N 
ATOM      9  C           0     137.139 130.203 146.984  0.00  0.00     0.169 C 
ATOM     10  C           0     138.750 132.155 147.057  0.00  0.00     0.672 C 
ATOM     11  N           0     139.353 131.839 148.169  0.00  0.00    -0.235 N 
ATOM     12  H           0     139.183 130.979 148.585  0.00  0.00     0.174 HD
ATOM     13  H           0     139.972 132.462 148.580  0.00  0.00     0.174 HD
ATOM     14  C           0     138.317 133.226 145.062  0.00  0.00     0.217 C 
ATOM     15  N           0     138.927 133.345 146.396  0.00  0.00    -0.191 N 
ATOM     16  N           0     137.319 134.272 144.839  0.00  0.00    -0.183 N 
ATOM     17  C           0     138.060 135.487 144.467  0.00  0.00     0.150 C 
ATOM     18  C           0     139.406 135.021 143.874  0.00  0.00     0.093 C 
ATOM     19  C           0     139.381 133.472 143.973  0.00  0.00     0.209 C 
ATOM     20  H           0     134.665 132.646 145.534  0.00  0.00     0.178 HD
ATOM     21  H           0     139.378 134.128 146.746  0.00  0.00     0.180 HD
ENDROOT
BRANCH   6  22
ATOM     22  C           0     136.276 131.776 143.025  0.00  0.00     0.208 C 
BRANCH  22  23
ATOM     23  O           0     134.902 131.928 142.582  0.00  0.00    -0.302 OA
BRANCH  23  24
ATOM     24  C           0     134.584 132.888 141.692  0.00  0.00     0.358 C 
ATOM     25  N           0     135.515 133.342 140.830  0.00  0.00    -0.346 N 
ATOM     26  H           0     136.414 132.978 140.850  0.00  0.00     0.161 HD
ATOM     27  H           0     135.286 134.033 140.188  0.00  0.00     0.161 HD
ATOM     28  O           0     133.458 133.344 141.666  0.00  0.00    -0.239 OA
ENDBRANCH  23  24
ENDBRANCH  22  23
ENDBRANCH   6  22
BRANCH  19  29
ATOM     29  O           0     140.656 132.967 144.374  0.00  0.00    -0.362 OA
ATOM     30  H           0     141.291 133.686 144.253  0.00  0.00     0.213 HD
ENDBRANCH  19  29
BRANCH  19  31
ATOM     31  O           0     138.972 132.891 142.733  0.00  0.00    -0.362 OA
ATOM     32  H           0     138.074 133.206 142.560  0.00  0.00     0.213 HD
ENDBRANCH  19  31
TORSDOF 5
ENDMDL
MODEL 3
REMARK VINA RESULT:      -6.8     12.964     14.912
REMARK  5 active torsions:
REMARK  status: ('A' for Active; 'I' for Inactive)
REMARK    1  A    between atoms: C_6  and  C_7 
REMARK    2  A    between atoms: C_7  and  O_8 
REMARK    3  A    between atoms: O_8  and  C_9 
REMARK       I    between atoms: C_9  and  N_10 
REMARK    4  A    between atoms: C_24  and  O_25 
REMARK    5  A    between atoms: C_24  and  O_26 
ROOT
ATOM      1  N           0     130.570 131.780 135.273  0.00  0.00    -0.235 N 
ATOM      2  H           0     129.747 132.167 135.611  0.00  0.00     0.174 HD
ATOM      3  H           0     131.419 132.019 135.677  0.00  0.00     0.174 HD
ATOM      4  C           0     130.534 130.935 134.281  0.00  0.00     0.672 C 
ATOM      5  N           0     129.348 130.560 133.678  0.00  0.00    -0.218 N 
ATOM      6  C           0     129.377 130.170 132.271  0.00  0.00     0.151 C 
ATOM      7  C           0     130.434 129.121 131.980  0.00  0.00     0.182 C 
ATOM      8  N           0     129.942 127.801 132.432  0.00  0.00    -0.211 N 
ATOM      9  C           0     128.576 127.293 132.296  0.00  0.00     0.169 C 
ATOM     10  C           0     131.002 127.138 133.002  0.00  0.00     0.672 C 
ATOM     11  N           0     131.047 125.847 133.181  0.00  0.00    -0.235 N 
ATOM     12  H           0     130.300 125.293 132.905  0.00  0.00     0.174 HD
ATOM     13  H           0     131.827 125.441 133.591  0.00  0.00     0.174 HD
ATOM     14  C           0     131.728 129.312 132.752  0.00  0.00     0.217 C 
ATOM     15  N           0     132.008 128.001 133.359  0.00  0.00    -0.191 N 
ATOM     16  N           0     131.673 130.365 133.765  0.00  0.00    -0.183 N 
ATOM     17  C           0     133.065 130.727 134.071  0.00  0.00     0.150 C 
ATOM     18  C           0     133.903 130.353 132.831  0.00  0.00     0.093 C 
ATOM     19  C           0     132.893 129.725 131.831  0.00  0.00     0.209 C 
ATOM     20  H           0     128.515 130.556 134.177  0.00  0.00     0.178 HD
ATOM     21  H           0     132.773 127.783 133.914  0.00  0.00     0.180 HD
ENDROOT
BRANCH   6  22
ATOM     22  C           0     129.667 131.409 131.421  0.00  0.00     0.208 C 
BRANCH  22  23
ATOM     23  O           0     128.414 132.005 130.993  0.00  0.00    -0.302 OA
BRANCH  23  24
ATOM     24  C           0     127.913 133.066 131.655  0.00  0.00     0.358 C 
ATOM     25  N           0     128.746 133.933 132.265  0.00  0.00    -0.346 N 
ATOM     26  H           0     129.705 133.793 132.228  0.00  0.00     0.161 HD
ATOM     27  H           0     128.385 134.698 132.741  0.00  0.00     0.161 HD
ATOM     28  O           0     126.712 133.243 131.700  0.00  0.00    -0.239 OA
ENDBRANCH  23  24
ENDBRANCH  22  23
ENDBRANCH   6  22
BRANCH  19  29
ATOM     29  O           0     133.463 128.590 131.179  0.00  0.00    -0.362 OA
ATOM     30  H           0     134.294 128.393 131.634  0.00  0.00     0.213 HD
ENDBRANCH  19  29
BRANCH  19  31
ATOM     31  O           0     132.458 130.694 130.876  0.00  0.00    -0.362 OA
ATOM     32  H           0     133.028 130.598 130.100  0.00  0.00     0.213 HD
ENDBRANCH  19  31
TORSDOF 5
ENDMDL
MODEL 4
REMARK VINA RESULT:      -6.7      2.309      5.006
REMARK  5 active torsions:
REMARK  status: ('A' for Active; 'I' for Inactive)
REMARK    1  A    between atoms: C_6  and  C_7 
REMARK    2  A    between atoms: C_7  and  O_8 
REMARK    3  A    between atoms: O_8  and  C_9 
REMARK       I    between atoms: C_9  and  N_10 
REMARK    4  A    between atoms: C_24  and  O_25 
REMARK    5  A    between atoms: C_24  and  O_26 
ROOT
ATOM      1  N           0     137.843 133.985 142.123  0.00  0.00    -0.235 N 
ATOM      2  H           0     138.309 134.825 141.992  0.00  0.00     0.174 HD
ATOM      3  H           0     137.643 133.417 141.363  0.00  0.00     0.174 HD
ATOM      4  C           0     137.490 133.615 143.323  0.00  0.00     0.672 C 
ATOM      5  N           0     137.758 134.388 144.438  0.00  0.00    -0.218 N 
ATOM      6  C           0     136.853 134.295 145.581  0.00  0.00     0.151 C 
ATOM      7  C           0     136.613 132.862 146.017  0.00  0.00     0.182 C 
ATOM      8  N           0     137.783 132.387 146.787  0.00  0.00    -0.211 N 
ATOM      9  C           0     138.550 133.164 147.763  0.00  0.00     0.169 C 
ATOM     10  C           0     138.020 131.085 146.420  0.00  0.00     0.672 C 
ATOM     11  N           0     138.720 130.240 147.126  0.00  0.00    -0.235 N 
ATOM     12  H           0     139.110 130.521 147.968  0.00  0.00     0.174 HD
ATOM     13  H           0     138.849 129.333 146.809  0.00  0.00     0.174 HD
ATOM     14  C           0     136.506 131.872 144.869  0.00  0.00     0.217 C 
ATOM     15  N           0     137.429 130.781 145.218  0.00  0.00    -0.191 N 
ATOM     16  N           0     136.823 132.437 143.558  0.00  0.00    -0.183 N 
ATOM     17  C           0     136.239 131.531 142.558  0.00  0.00     0.150 C 
ATOM     18  C           0     135.076 130.794 143.253  0.00  0.00     0.093 C 
ATOM     19  C           0     135.074 131.322 144.714  0.00  0.00     0.209 C 
ATOM     20  H           0     138.528 134.978 144.461  0.00  0.00     0.178 HD
ATOM     21  H           0     137.590 129.983 144.692  0.00  0.00     0.180 HD
ENDROOT
BRANCH   6  22
ATOM     22  C           0     135.511 134.925 145.202  0.00  0.00     0.208 C 
BRANCH  22  23
ATOM     23  O           0     135.647 135.627 143.938  0.00  0.00    -0.302 OA
BRANCH  23  24
ATOM     24  C           0     134.646 135.590 143.037  0.00  0.00     0.358 C 
ATOM     25  N           0     134.302 136.708 142.368  0.00  0.00    -0.346 N 
ATOM     26  H           0     134.774 137.539 142.535  0.00  0.00     0.161 HD
ATOM     27  H           0     133.582 136.681 141.718  0.00  0.00     0.161 HD
ATOM     28  O           0     134.056 134.549 142.827  0.00  0.00    -0.239 OA
ENDBRANCH  23  24
ENDBRANCH  22  23
ENDBRANCH   6  22
BRANCH  19  29
ATOM     29  O           0     134.827 130.260 145.637  0.00  0.00    -0.362 OA
ATOM     30  H           0     134.296 129.600 145.170  0.00  0.00     0.213 HD
ENDBRANCH  19  29
BRANCH  19  31
ATOM     31  O           0     134.114 132.368 144.874  0.00  0.00    -0.362 OA
ATOM     32  H           0     134.426 132.924 145.602  0.00  0.00     0.213 HD
ENDBRANCH  19  31
TORSDOF 5
ENDMDL
MODEL 5
REMARK VINA RESULT:      -6.6      8.621     11.359
REMARK  5 active torsions:
REMARK  status: ('A' for Active; 'I' for Inactive)
REMARK    1  A    between atoms: C_6  and  C_7 
REMARK    2  A    between atoms: C_7  and  O_8 
REMARK    3  A    between atoms: O_8  and  C_9 
REMARK       I    between atoms: C_9  and  N_10 
REMARK    4  A    between atoms: C_24  and  O_25 
REMARK    5  A    between atoms: C_24  and  O_26 
ROOT
ATOM      1  N           0     130.299 132.350 136.175  0.00  0.00    -0.235 N 
ATOM      2  H           0     129.657 132.676 136.824  0.00  0.00     0.174 HD
ATOM      3  H           0     130.329 131.406 135.955  0.00  0.00     0.174 HD
ATOM      4  C           0     131.118 133.182 135.593  0.00  0.00     0.672 C 
ATOM      5  N           0     131.109 134.536 135.869  0.00  0.00    -0.218 N 
ATOM      6  C           0     132.355 135.283 135.727  0.00  0.00     0.151 C 
ATOM      7  C           0     133.018 135.056 134.381  0.00  0.00     0.182 C 
ATOM      8  N           0     132.314 135.855 133.354  0.00  0.00    -0.211 N 
ATOM      9  C           0     131.799 137.216 133.519  0.00  0.00     0.169 C 
ATOM     10  C           0     132.232 135.089 132.217  0.00  0.00     0.672 C 
ATOM     11  N           0     132.011 135.568 131.025  0.00  0.00    -0.235 N 
ATOM     12  H           0     131.893 136.523 130.901  0.00  0.00     0.174 HD
ATOM     13  H           0     131.965 134.971 130.262  0.00  0.00     0.174 HD
ATOM     14  C           0     132.913 133.630 133.868  0.00  0.00     0.217 C 
ATOM     15  N           0     132.412 133.755 132.490  0.00  0.00    -0.191 N 
ATOM     16  N           0     132.048 132.767 134.671  0.00  0.00    -0.183 N 
ATOM     17  C           0     132.414 131.381 134.340  0.00  0.00     0.150 C 
ATOM     18  C           0     133.871 131.417 133.833  0.00  0.00     0.093 C 
ATOM     19  C           0     134.279 132.915 133.869  0.00  0.00     0.209 C 
ATOM     20  H           0     130.293 134.981 136.151  0.00  0.00     0.178 HD
ATOM     21  H           0     132.241 133.022 131.879  0.00  0.00     0.180 HD
ENDROOT
BRANCH   6  22
ATOM     22  C           0     133.322 134.847 136.830  0.00  0.00     0.208 C 
BRANCH  22  23
ATOM     23  O           0     132.567 134.466 138.010  0.00  0.00    -0.302 OA
BRANCH  23  24
ATOM     24  C           0     132.997 134.836 139.232  0.00  0.00     0.358 C 
ATOM     25  N           0     133.600 136.029 139.401  0.00  0.00    -0.346 N 
ATOM     26  H           0     133.725 136.621 138.643  0.00  0.00     0.161 HD
ATOM     27  H           0     133.909 136.297 140.281  0.00  0.00     0.161 HD
ATOM     28  O           0     132.839 134.095 140.182  0.00  0.00    -0.239 OA
ENDBRANCH  23  24
ENDBRANCH  22  23
ENDBRANCH   6  22
BRANCH  19  29
ATOM     29  O           0     135.043 133.261 132.714  0.00  0.00    -0.362 OA
ATOM     30  H           0     135.547 132.474 132.465  0.00  0.00     0.213 HD
ENDBRANCH  19  29
BRANCH  19  31
ATOM     31  O           0     135.001 133.215 135.065  0.00  0.00    -0.362 OA
ATOM     32  H           0     135.535 133.999 134.880  0.00  0.00     0.213 HD
ENDBRANCH  19  31
TORSDOF 5
ENDMDL
MODEL 6
REMARK VINA RESULT:      -6.5      2.770      4.460
REMARK  5 active torsions:
REMARK  status: ('A' for Active; 'I' for Inactive)
REMARK    1  A    between atoms: C_6  and  C_7 
REMARK    2  A    between atoms: C_7  and  O_8 
REMARK    3  A    between atoms: O_8  and  C_9 
REMARK       I    between atoms: C_9  and  N_10 
REMARK    4  A    between atoms: C_24  and  O_25 
REMARK    5  A    between atoms: C_24  and  O_26 
ROOT
ATOM      1  N           0     135.767 135.117 143.127  0.00  0.00    -0.235 N 
ATOM      2  H           0     134.822 135.325 143.078  0.00  0.00     0.174 HD
ATOM      3  H           0     136.331 135.233 142.347  0.00  0.00     0.174 HD
ATOM      4  C           0     136.283 134.686 144.245  0.00  0.00     0.672 C 
ATOM      5  N           0     135.522 134.509 145.386  0.00  0.00    -0.218 N 
ATOM      6  C           0     135.934 133.488 146.345  0.00  0.00     0.151 C 
ATOM      7  C           0     137.393 133.615 146.738  0.00  0.00     0.182 C 
ATOM      8  N           0     137.538 134.720 147.711  0.00  0.00    -0.211 N 
ATOM      9  C           0     136.618 135.035 148.806  0.00  0.00     0.169 C 
ATOM     10  C           0     138.693 135.396 147.401  0.00  0.00     0.672 C 
ATOM     11  N           0     139.327 136.181 148.228  0.00  0.00    -0.235 N 
ATOM     12  H           0     138.985 136.316 149.126  0.00  0.00     0.174 HD
ATOM     13  H           0     140.139 136.629 147.945  0.00  0.00     0.174 HD
ATOM     14  C           0     138.313 134.013 145.596  0.00  0.00     0.217 C 
ATOM     15  N           0     139.099 135.144 146.114  0.00  0.00    -0.191 N 
ATOM     16  N           0     137.615 134.372 144.362  0.00  0.00    -0.183 N 
ATOM     17  C           0     138.604 134.271 143.277  0.00  0.00     0.150 C 
ATOM     18  C           0     139.684 133.278 143.752  0.00  0.00     0.093 C 
ATOM     19  C           0     139.253 132.862 145.185  0.00  0.00     0.209 C 
ATOM     20  H           0     134.733 135.051 145.545  0.00  0.00     0.178 HD
ATOM     21  H           0     139.787 135.626 145.630  0.00  0.00     0.180 HD
ENDROOT
BRANCH   6  22
ATOM     22  C           0     135.710 132.108 145.724  0.00  0.00     0.208 C 
BRANCH  22  23
ATOM     23  O           0     134.819 132.229 144.584  0.00  0.00    -0.302 OA
BRANCH  23  24
ATOM     24  C           0     135.012 131.461 143.494  0.00  0.00     0.358 C 
ATOM     25  N           0     136.239 130.976 143.221  0.00  0.00    -0.346 N 
ATOM     26  H           0     136.984 131.180 143.809  0.00  0.00     0.161 HD
ATOM     27  H           0     136.378 130.422 142.437  0.00  0.00     0.161 HD
ATOM     28  O           0     134.080 131.205 142.759  0.00  0.00    -0.239 OA
ENDBRANCH  23  24
ENDBRANCH  22  23
ENDBRANCH   6  22
BRANCH  19  29
ATOM     29  O           0     140.385 132.786 146.054  0.00  0.00    -0.362 OA
ATOM     30  H           0     141.012 132.175 145.644  0.00  0.00     0.213 HD
ENDBRANCH  19  29
BRANCH  19  31
ATOM     31  O           0     138.546 131.621 145.162  0.00  0.00    -0.362 OA
ATOM     32  H           0     138.670 131.245 144.279  0.00  0.00     0.213 HD
ENDBRANCH  19  31
TORSDOF 5
ENDMDL
MODEL 7
REMARK VINA RESULT:      -6.3     10.867     12.852
REMARK  5 active torsions:
REMARK  status: ('A' for Active; 'I' for Inactive)
REMARK    1  A    between atoms: C_6  and  C_7 
REMARK    2  A    between atoms: C_7  and  O_8 
REMARK    3  A    between atoms: O_8  and  C_9 
REMARK       I    between atoms: C_9  and  N_10 
REMARK    4  A    between atoms: C_24  and  O_25 
REMARK    5  A    between atoms: C_24  and  O_26 
ROOT
ATOM      1  N           0     133.116 135.569 136.354  0.00  0.00    -0.235 N 
ATOM      2  H           0     133.827 136.214 136.224  0.00  0.00     0.174 HD
ATOM      3  H           0     132.648 135.528 137.203  0.00  0.00     0.174 HD
ATOM      4  C           0     132.782 134.761 135.386  0.00  0.00     0.672 C 
ATOM      5  N           0     133.415 134.787 134.157  0.00  0.00    -0.218 N 
ATOM      6  C           0     133.482 133.549 133.385  0.00  0.00     0.151 C 
ATOM      7  C           0     132.127 132.885 133.231  0.00  0.00     0.182 C 
ATOM      8  N           0     131.353 133.600 132.192  0.00  0.00    -0.211 N 
ATOM      9  C           0     131.879 134.132 130.933  0.00  0.00     0.169 C 
ATOM     10  C           0     130.050 133.673 132.624  0.00  0.00     0.672 C 
ATOM     11  N           0     129.032 133.901 131.842  0.00  0.00    -0.235 N 
ATOM     12  H           0     129.171 134.031 130.891  0.00  0.00     0.174 HD
ATOM     13  H           0     128.136 133.941 132.212  0.00  0.00     0.174 HD
ATOM     14  C           0     131.247 132.974 134.466  0.00  0.00     0.217 C 
ATOM     15  N           0     129.953 133.477 133.979  0.00  0.00    -0.191 N 
ATOM     16  N           0     131.785 133.827 135.525  0.00  0.00    -0.183 N 
ATOM     17  C           0     131.091 133.444 136.765  0.00  0.00     0.150 C 
ATOM     18  C           0     130.617 131.989 136.576  0.00  0.00     0.093 C 
ATOM     19  C           0     131.058 131.599 135.139  0.00  0.00     0.209 C 
ATOM     20  H           0     133.804 135.608 133.815  0.00  0.00     0.178 HD
ATOM     21  H           0     129.166 133.639 134.522  0.00  0.00     0.180 HD
ENDROOT
BRANCH   6  22
ATOM     22  C           0     134.429 132.577 134.092  0.00  0.00     0.208 C 
BRANCH  22  23
ATOM     23  O           0     135.100 131.752 133.103  0.00  0.00    -0.302 OA
BRANCH  23  24
ATOM     24  C           0     135.218 130.425 133.302  0.00  0.00     0.358 C 
ATOM     25  N           0     134.845 129.885 134.479  0.00  0.00    -0.346 N 
ATOM     26  H           0     134.494 130.451 135.183  0.00  0.00     0.161 HD
ATOM     27  H           0     134.929 128.929 134.622  0.00  0.00     0.161 HD
ATOM     28  O           0     135.657 129.715 132.419  0.00  0.00    -0.239 OA
ENDBRANCH  23  24
ENDBRANCH  22  23
ENDBRANCH   6  22
BRANCH  19  29
ATOM     29  O           0     130.041 130.839 134.484  0.00  0.00    -0.362 OA
ATOM     30  H           0     130.306 130.758 133.557  0.00  0.00     0.213 HD
ENDBRANCH  19  29
BRANCH  19  31
ATOM     31  O           0     132.293 130.880 135.165  0.00  0.00    -0.362 OA
ATOM     32  H           0     132.478 130.611 134.255  0.00  0.00     0.213 HD
ENDBRANCH  19  31
TORSDOF 5
ENDMDL
MODEL 8
REMARK VINA RESULT:      -6.3      2.547      4.102
REMARK  5 active torsions:
REMARK  status: ('A' for Active; 'I' for Inactive)
REMARK    1  A    between atoms: C_6  and  C_7 
REMARK    2  A    between atoms: C_7  and  O_8 
REMARK    3  A    between atoms: O_8  and  C_9 
REMARK       I    between atoms: C_9  and  N_10 
REMARK    4  A    between atoms: C_24  and  O_25 
REMARK    5  A    between atoms: C_24  and  O_26 
ROOT
ATOM      1  N           0     135.757 135.326 143.168  0.00  0.00    -0.235 N 
ATOM      2  H           0     134.817 135.562 143.140  0.00  0.00     0.174 HD
ATOM      3  H           0     136.318 135.472 142.390  0.00  0.00     0.174 HD
ATOM      4  C           0     136.270 134.821 144.255  0.00  0.00     0.672 C 
ATOM      5  N           0     135.514 134.601 145.392  0.00  0.00    -0.218 N 
ATOM      6  C           0     135.906 133.518 146.289  0.00  0.00     0.151 C 
ATOM      7  C           0     137.372 133.584 146.675  0.00  0.00     0.182 C 
ATOM      8  N           0     137.554 134.629 147.706  0.00  0.00    -0.211 N 
ATOM      9  C           0     136.652 134.906 148.825  0.00  0.00     0.169 C 
ATOM     10  C           0     138.724 135.291 147.423  0.00  0.00     0.672 C 
ATOM     11  N           0     139.385 136.011 148.286  0.00  0.00    -0.235 N 
ATOM     12  H           0     139.055 136.105 149.193  0.00  0.00     0.174 HD
ATOM     13  H           0     140.206 136.453 148.020  0.00  0.00     0.174 HD
ATOM     14  C           0     138.292 134.021 145.548  0.00  0.00     0.217 C 
ATOM     15  N           0     139.112 135.100 146.120  0.00  0.00    -0.191 N 
ATOM     16  N           0     137.595 134.466 144.342  0.00  0.00    -0.183 N 
ATOM     17  C           0     138.571 134.399 143.243  0.00  0.00     0.150 C 
ATOM     18  C           0     139.629 133.354 143.653  0.00  0.00     0.093 C 
ATOM     19  C           0     139.198 132.870 145.065  0.00  0.00     0.209 C 
ATOM     20  H           0     134.741 135.154 145.589  0.00  0.00     0.178 HD
ATOM     21  H           0     139.809 135.590 145.657  0.00  0.00     0.180 HD
ENDROOT
BRANCH   6  22
ATOM     22  C           0     135.641 132.180 145.594  0.00  0.00     0.208 C 
BRANCH  22  23
ATOM     23  O           0     135.245 131.193 146.583  0.00  0.00    -0.302 OA
BRANCH  23  24
ATOM     24  C           0     135.762 129.950 146.537  0.00  0.00     0.358 C 
ATOM     25  N           0     137.084 129.764 146.722  0.00  0.00    -0.346 N 
ATOM     26  H           0     137.663 130.524 146.888  0.00  0.00     0.161 HD
ATOM     27  H           0     137.456 128.869 146.690  0.00  0.00     0.161 HD
ATOM     28  O           0     135.037 128.998 146.330  0.00  0.00    -0.239 OA
ENDBRANCH  23  24
ENDBRANCH  22  23
ENDBRANCH   6  22
BRANCH  19  29
ATOM     29  O           0     140.334 132.716 145.917  0.00  0.00    -0.362 OA
ATOM     30  H           0     140.396 133.521 146.449  0.00  0.00     0.213 HD
ENDBRANCH  19  29
BRANCH  19  31
ATOM     31  O           0     138.458 131.651 144.979  0.00  0.00    -0.362 OA
ATOM     32  H           0     137.621 131.862 144.542  0.00  0.00     0.213 HD
ENDBRANCH  19  31
TORSDOF 5
ENDMDL
MODEL 9
REMARK VINA RESULT:      -6.2      2.032      5.180
REMARK  5 active torsions:
REMARK  status: ('A' for Active; 'I' for Inactive)
REMARK    1  A    between atoms: C_6  and  C_7 
REMARK    2  A    between atoms: C_7  and  O_8 
REMARK    3  A    between atoms: O_8  and  C_9 
REMARK       I    between atoms: C_9  and  N_10 
REMARK    4  A    between atoms: C_24  and  O_25 
REMARK    5  A    between atoms: C_24  and  O_26 
ROOT
ATOM      1  N           0     136.988 133.115 142.103  0.00  0.00    -0.235 N 
ATOM      2  H           0     137.508 133.400 141.336  0.00  0.00     0.174 HD
ATOM      3  H           0     136.065 132.841 141.989  0.00  0.00     0.174 HD
ATOM      4  C           0     137.533 133.093 143.288  0.00  0.00     0.672 C 
ATOM      5  N           0     138.847 133.468 143.500  0.00  0.00    -0.218 N 
ATOM      6  C           0     139.209 134.027 144.799  0.00  0.00     0.151 C 
ATOM      7  C           0     138.749 133.157 145.954  0.00  0.00     0.182 C 
ATOM      8  N           0     139.668 132.006 146.090  0.00  0.00    -0.211 N 
ATOM      9  C           0     141.125 132.039 145.939  0.00  0.00     0.169 C 
ATOM     10  C           0     138.907 130.901 146.383  0.00  0.00     0.672 C 
ATOM     11  N           0     139.379 129.808 146.916  0.00  0.00    -0.235 N 
ATOM     12  H           0     140.322 129.741 147.131  0.00  0.00     0.174 HD
ATOM     13  H           0     138.786 129.062 147.098  0.00  0.00     0.174 HD
ATOM     14  C           0     137.389 132.514 145.746  0.00  0.00     0.217 C 
ATOM     15  N           0     137.589 131.088 146.046  0.00  0.00    -0.191 N 
ATOM     16  N           0     136.836 132.702 144.405  0.00  0.00    -0.183 N 
ATOM     17  C           0     135.390 132.450 144.508  0.00  0.00     0.150 C 
ATOM     18  C           0     134.996 132.722 145.975  0.00  0.00     0.093 C 
ATOM     19  C           0     136.321 133.106 146.689  0.00  0.00     0.209 C 
ATOM     20  H           0     139.513 133.362 142.802  0.00  0.00     0.178 HD
ATOM     21  H           0     136.908 130.399 146.014  0.00  0.00     0.180 HD
ENDROOT
BRANCH   6  22
ATOM     22  C           0     138.568 135.409 144.939  0.00  0.00     0.208 C 
BRANCH  22  23
ATOM     23  O           0     139.608 136.411 145.090  0.00  0.00    -0.302 OA
BRANCH  23  24
ATOM     24  C           0     139.937 136.859 146.317  0.00  0.00     0.358 C 
ATOM     25  N           0     139.245 137.874 146.870  0.00  0.00    -0.346 N 
ATOM     26  H           0     138.511 138.283 146.386  0.00  0.00     0.161 HD
ATOM     27  H           0     139.482 138.197 147.754  0.00  0.00     0.161 HD
ATOM     28  O           0     140.856 136.347 146.924  0.00  0.00    -0.239 OA
ENDBRANCH  23  24
ENDBRANCH  22  23
ENDBRANCH   6  22
BRANCH  19  29
ATOM     29  O           0     136.391 132.510 147.985  0.00  0.00    -0.362 OA
ATOM     30  H           0     137.173 131.941 147.990  0.00  0.00     0.213 HD
ENDBRANCH  19  29
BRANCH  19  31
ATOM     31  O           0     136.458 134.525 146.774  0.00  0.00    -0.362 OA
ATOM     32  H           0     135.597 134.903 146.547  0.00  0.00     0.213 HD
ENDBRANCH  19  31
TORSDOF 5
ENDMDL
