# created with PyMOL 2.3.4
@<TRIPOS>MOLECULE
ligand_out_0001
37 39 1                 
SMALL
USER_CHARGES
@<TRIPOS>ATOM
1	   N	133.013	131.679	149.061	N.3	1	UNK0	-0.235	
2	   N	134.077	129.764	149.919	N.3	1	UNK0	-0.218	
3	   N	137.087	129.209	150.279	N.3	1	UNK0	-0.216	
4	   N	138.991	130.555	150.682	N.3	1	UNK0	-0.235	
5	   N	137.434	131.031	148.967	N.3	1	UNK0	-0.191	
6	   N	135.118	131.037	148.266	N.3	1	UNK0	-0.180	
7	   N	132.258	126.128	147.076	N.pl3	1	UNK0	-0.346	
8	   C	134.030	130.864	149.080	C.3	1	UNK0	0.672	
9	   C	134.856	128.604	149.495	C.3	1	UNK0	0.151	
10	   C	136.266	128.968	149.074	C.3	1	UNK0	0.180	
11	   C	137.904	130.282	150.016	C.3	1	UNK0	0.670	
12	   C	136.365	130.271	148.297	C.3	1	UNK0	0.220	
13	   C	135.269	131.981	147.143	C.3	1	UNK0	0.183	
14	   C	136.008	131.167	146.055	C.2	1	UNK0	0.230	
15	   C	136.736	130.035	146.823	C.3	1	UNK0	0.238	
16	   C	134.145	127.937	148.314	C.2	1	UNK0	0.208	
17	   C	131.899	127.266	147.702	C.2	1	UNK0	0.358	
18	   O	132.727	127.827	148.604	O.2	1	UNK0	-0.302	
19	   O	130.829	127.785	147.454	O.co2	1	UNK0	-0.239	
20	   O	138.150	130.138	146.637	O.2	1	UNK0	-0.360	
21	   O	136.267	128.757	146.391	O.2	1	UNK0	-0.360	
22	   O	135.073	130.619	145.124	O.2	1	UNK0	-0.244	
23	   O	134.734	132.745	144.100	O.3	1	UNK0	-0.572	
24	   O	136.649	131.392	143.511	O.3	1	UNK0	-0.572	
25	   O	134.432	130.710	142.830	O.3	1	UNK0	-0.572	
26	   S	135.229	131.404	143.829	S.3	1	UNK0	0.252	
27	   H	132.257	131.524	149.649	 H	1	UNK0	0.174	
28	   H	133.015	132.442	148.463	 H	1	UNK0	0.174	
29	   H	139.267	129.983	151.415	 H	1	UNK0	0.174	
30	   H	139.524	131.330	150.444	 H	1	UNK0	0.174	
31	   H	133.607	129.765	150.767	 H	1	UNK0	0.178	
32	   H	137.054	128.703	151.106	 H	1	UNK0	0.178	
33	   H	137.753	131.910	148.708	 H	1	UNK0	0.180	
34	   H	133.111	125.713	147.274	 H	1	UNK0	0.161	
35	   H	131.661	125.723	146.426	 H	1	UNK0	0.161	
36	   H	138.535	129.310	146.957	 H	1	UNK0	0.213	
37	   H	136.911	128.104	146.697	 H	1	UNK0	0.213	
@<TRIPOS>BOND
1 1 8 1
2 1 27 1
3 1 28 1
4 2 9 1
5 2 31 1
6 3 11 1
7 3 32 1
8 4 29 1
9 4 30 1
10 5 33 1
11 6 13 1
12 7 34 1
13 7 35 1
14 2 8 1
15 6 8 1
16 9 10 1
17 9 16 1
18 3 10 1
19 10 12 1
20 4 11 1
21 5 11 1
22 5 12 1
23 6 12 1
24 12 15 1
25 13 14 1
26 14 15 1
27 14 22 2
28 15 20 2
29 15 21 2
30 16 18 2
31 7 17 1
32 17 19 2
33 17 18 2
34 20 36 1
35 21 37 1
36 22 26 1
37 23 26 1
38 24 26 1
39 25 26 1
@<TRIPOS>SUBSTRUCTURE
1	UNK0	1	GROUP	1 ****	UNK
