MODEL 1
REMARK VINA RESULT:      -7.4      0.000      0.000
REMARK  7 active torsions:
REMARK  status: ('A' for Active; 'I' for Inactive)
REMARK    1  A    between atoms: C_6  and  C_7 
REMARK    2  A    between atoms: C_7  and  O_8 
REMARK    3  A    between atoms: O_8  and  C_9 
REMARK       I    between atoms: C_9  and  N_10 
REMARK    4  A    between atoms: C_22  and  O_23 
REMARK    5  A    between atoms: O_23  and  S_24 
REMARK    6  A    between atoms: C_28  and  O_29 
REMARK    7  A    between atoms: C_28  and  O_30 
ROOT
ATOM      1  N           0     133.013 131.679 149.061  0.00  0.00    -0.235 N 
ATOM      2  H           0     132.257 131.524 149.649  0.00  0.00     0.174 HD
ATOM      3  H           0     133.015 132.442 148.463  0.00  0.00     0.174 HD
ATOM      4  C           0     134.030 130.864 149.080  0.00  0.00     0.672 C 
ATOM      5  N           0     134.077 129.764 149.919  0.00  0.00    -0.218 N 
ATOM      6  C           0     134.856 128.604 149.495  0.00  0.00     0.151 C 
ATOM      7  C           0     136.266 128.968 149.074  0.00  0.00     0.180 C 
ATOM      8  N           0     137.087 129.209 150.279  0.00  0.00    -0.216 N 
ATOM      9  C           0     137.904 130.282 150.016  0.00  0.00     0.670 C 
ATOM     10  N           0     138.991 130.555 150.682  0.00  0.00    -0.235 N 
ATOM     11  H           0     139.267 129.983 151.415  0.00  0.00     0.174 HD
ATOM     12  H           0     139.524 131.330 150.444  0.00  0.00     0.174 HD
ATOM     13  C           0     136.365 130.271 148.297  0.00  0.00     0.220 C 
ATOM     14  N           0     137.434 131.031 148.967  0.00  0.00    -0.191 N 
ATOM     15  N           0     135.118 131.037 148.266  0.00  0.00    -0.180 N 
ATOM     16  C           0     135.269 131.981 147.143  0.00  0.00     0.183 C 
ATOM     17  C           0     136.008 131.167 146.055  0.00  0.00     0.230 C 
ATOM     18  C           0     136.736 130.035 146.823  0.00  0.00     0.238 C 
ATOM     19  H           0     133.607 129.765 150.767  0.00  0.00     0.178 HD
ATOM     20  H           0     137.054 128.703 151.106  0.00  0.00     0.178 HD
ATOM     21  H           0     137.753 131.910 148.708  0.00  0.00     0.180 HD
ENDROOT
BRANCH   6  22
ATOM     22  C           0     134.145 127.937 148.314  0.00  0.00     0.208 C 
BRANCH  22  23
ATOM     23  O           0     132.727 127.827 148.604  0.00  0.00    -0.302 OA
BRANCH  23  24
ATOM     24  C           0     131.899 127.266 147.702  0.00  0.00     0.358 C 
ATOM     25  N           0     132.258 126.128 147.076  0.00  0.00    -0.346 N 
ATOM     26  H           0     133.111 125.713 147.274  0.00  0.00     0.161 HD
ATOM     27  H           0     131.661 125.723 146.426  0.00  0.00     0.161 HD
ATOM     28  O           0     130.829 127.785 147.454  0.00  0.00    -0.239 OA
ENDBRANCH  23  24
ENDBRANCH  22  23
ENDBRANCH   6  22
BRANCH  18  29
ATOM     29  O           0     138.150 130.138 146.637  0.00  0.00    -0.360 OA
ATOM     30  H           0     138.535 129.310 146.957  0.00  0.00     0.213 HD
ENDBRANCH  18  29
BRANCH  18  31
ATOM     31  O           0     136.267 128.757 146.391  0.00  0.00    -0.360 OA
ATOM     32  H           0     136.911 128.104 146.697  0.00  0.00     0.213 HD
ENDBRANCH  18  31
BRANCH  17  33
ATOM     33  O           0     135.073 130.619 145.124  0.00  0.00    -0.244 OA
BRANCH  33  34
ATOM     34  S           0     135.229 131.404 143.829  0.00  0.00     0.252 S 
ATOM     35  O           0     134.734 132.745 144.100  0.00  0.00    -0.572 OA
ATOM     36  O           0     136.649 131.392 143.511  0.00  0.00    -0.572 OA
ATOM     37  O           0     134.432 130.710 142.830  0.00  0.00    -0.572 OA
ENDBRANCH  33  34
ENDBRANCH  17  33
TORSDOF 7
ENDMDL
MODEL 2
REMARK VINA RESULT:      -7.3      3.050      5.561
REMARK  7 active torsions:
REMARK  status: ('A' for Active; 'I' for Inactive)
REMARK    1  A    between atoms: C_6  and  C_7 
REMARK    2  A    between atoms: C_7  and  O_8 
REMARK    3  A    between atoms: O_8  and  C_9 
REMARK       I    between atoms: C_9  and  N_10 
REMARK    4  A    between atoms: C_22  and  O_23 
REMARK    5  A    between atoms: O_23  and  S_24 
REMARK    6  A    between atoms: C_28  and  O_29 
REMARK    7  A    between atoms: C_28  and  O_30 
ROOT
ATOM      1  N           0     139.324 130.661 146.250  0.00  0.00    -0.235 N 
ATOM      2  H           0     139.997 130.724 145.555  0.00  0.00     0.174 HD
ATOM      3  H           0     139.424 130.013 146.964  0.00  0.00     0.174 HD
ATOM      4  C           0     138.288 131.452 146.228  0.00  0.00     0.672 C 
ATOM      5  N           0     138.103 132.396 145.233  0.00  0.00    -0.218 N 
ATOM      6  C           0     136.737 132.785 144.893  0.00  0.00     0.151 C 
ATOM      7  C           0     135.922 133.178 146.108  0.00  0.00     0.180 C 
ATOM      8  N           0     136.312 134.538 146.538  0.00  0.00    -0.216 N 
ATOM      9  C           0     136.337 134.547 147.911  0.00  0.00     0.670 C 
ATOM     10  N           0     136.283 135.630 148.636  0.00  0.00    -0.235 N 
ATOM     11  H           0     136.220 136.497 148.208  0.00  0.00     0.174 HD
ATOM     12  H           0     136.304 135.566 149.604  0.00  0.00     0.174 HD
ATOM     13  C           0     136.181 132.319 147.336  0.00  0.00     0.220 C 
ATOM     14  N           0     136.427 133.278 148.425  0.00  0.00    -0.191 N 
ATOM     15  N           0     137.309 131.398 147.185  0.00  0.00    -0.180 N 
ATOM     16  C           0     137.125 130.381 148.236  0.00  0.00     0.183 C 
ATOM     17  C           0     135.597 130.144 148.278  0.00  0.00     0.230 C 
ATOM     18  C           0     134.973 131.432 147.682  0.00  0.00     0.238 C 
ATOM     19  H           0     138.862 132.791 144.774  0.00  0.00     0.178 HD
ATOM     20  H           0     136.515 135.286 145.956  0.00  0.00     0.178 HD
ATOM     21  H           0     136.616 133.051 149.349  0.00  0.00     0.180 HD
ENDROOT
BRANCH   6  22
ATOM     22  C           0     136.049 131.608 144.197  0.00  0.00     0.208 C 
BRANCH  22  23
ATOM     23  O           0     134.706 131.997 143.806  0.00  0.00    -0.302 OA
BRANCH  23  24
ATOM     24  C           0     134.400 132.138 142.501  0.00  0.00     0.358 C 
ATOM     25  N           0     133.250 131.625 142.021  0.00  0.00    -0.346 N 
ATOM     26  H           0     132.644 131.155 142.613  0.00  0.00     0.161 HD
ATOM     27  H           0     133.029 131.726 141.082  0.00  0.00     0.161 HD
ATOM     28  O           0     135.160 132.728 141.760  0.00  0.00    -0.239 OA
ENDBRANCH  23  24
ENDBRANCH  22  23
ENDBRANCH   6  22
BRANCH  18  29
ATOM     29  O           0     134.138 132.073 148.649  0.00  0.00    -0.360 OA
ATOM     30  H           0     134.344 131.674 149.505  0.00  0.00     0.213 HD
ENDBRANCH  18  29
BRANCH  18  31
ATOM     31  O           0     134.227 131.124 146.503  0.00  0.00    -0.360 OA
ATOM     32  H           0     133.327 131.447 146.649  0.00  0.00     0.213 HD
ENDBRANCH  18  31
BRANCH  17  33
ATOM     33  O           0     135.249 129.007 147.486  0.00  0.00    -0.244 OA
BRANCH  33  34
ATOM     34  S           0     134.260 128.188 148.304  0.00  0.00     0.252 S 
ATOM     35  O           0     133.315 129.135 148.875  0.00  0.00    -0.572 OA
ATOM     36  O           0     133.625 127.265 147.374  0.00  0.00    -0.572 OA
ATOM     37  O           0     135.039 127.500 149.321  0.00  0.00    -0.572 OA
ENDBRANCH  33  34
ENDBRANCH  17  33
TORSDOF 7
ENDMDL
MODEL 3
REMARK VINA RESULT:      -7.3      3.852      6.768
REMARK  7 active torsions:
REMARK  status: ('A' for Active; 'I' for Inactive)
REMARK    1  A    between atoms: C_6  and  C_7 
REMARK    2  A    between atoms: C_7  and  O_8 
REMARK    3  A    between atoms: O_8  and  C_9 
REMARK       I    between atoms: C_9  and  N_10 
REMARK    4  A    between atoms: C_22  and  O_23 
REMARK    5  A    between atoms: O_23  and  S_24 
REMARK    6  A    between atoms: C_28  and  O_29 
REMARK    7  A    between atoms: C_28  and  O_30 
ROOT
ATOM      1  N           0     135.981 134.764 146.778  0.00  0.00    -0.235 N 
ATOM      2  H           0     136.414 135.607 146.984  0.00  0.00     0.174 HD
ATOM      3  H           0     135.504 134.282 147.471  0.00  0.00     0.174 HD
ATOM      4  C           0     136.036 134.282 145.568  0.00  0.00     0.672 C 
ATOM      5  N           0     136.700 134.935 144.544  0.00  0.00    -0.218 N 
ATOM      6  C           0     137.258 134.133 143.459  0.00  0.00     0.151 C 
ATOM      7  C           0     136.249 133.172 142.863  0.00  0.00     0.180 C 
ATOM      8  N           0     135.330 133.919 141.977  0.00  0.00    -0.216 N 
ATOM      9  C           0     134.069 133.409 142.164  0.00  0.00     0.670 C 
ATOM     10  N           0     133.087 133.558 141.320  0.00  0.00    -0.235 N 
ATOM     11  H           0     133.224 134.056 140.499  0.00  0.00     0.174 HD
ATOM     12  H           0     132.218 133.171 141.512  0.00  0.00     0.174 HD
ATOM     13  C           0     135.327 132.527 143.885  0.00  0.00     0.220 C 
ATOM     14  N           0     133.970 132.723 143.349  0.00  0.00    -0.191 N 
ATOM     15  N           0     135.445 133.093 145.230  0.00  0.00    -0.180 N 
ATOM     16  C           0     134.852 132.088 146.129  0.00  0.00     0.183 C 
ATOM     17  C           0     135.300 130.731 145.538  0.00  0.00     0.230 C 
ATOM     18  C           0     135.612 131.024 144.048  0.00  0.00     0.238 C 
ATOM     19  H           0     136.791 135.901 144.546  0.00  0.00     0.178 HD
ATOM     20  H           0     135.573 134.640 141.376  0.00  0.00     0.178 HD
ATOM     21  H           0     133.147 132.417 143.761  0.00  0.00     0.180 HD
ENDROOT
BRANCH   6  22
ATOM     22  C           0     138.444 133.330 144.000  0.00  0.00     0.208 C 
BRANCH  22  23
ATOM     23  O           0     138.329 133.210 145.442  0.00  0.00    -0.302 OA
BRANCH  23  24
ATOM     24  C           0     139.176 132.411 146.120  0.00  0.00     0.358 C 
ATOM     25  N           0     139.133 131.076 145.936  0.00  0.00    -0.346 N 
ATOM     26  H           0     138.495 130.692 145.316  0.00  0.00     0.161 HD
ATOM     27  H           0     139.743 130.501 146.423  0.00  0.00     0.161 HD
ATOM     28  O           0     139.976 132.893 146.895  0.00  0.00    -0.239 OA
ENDBRANCH  23  24
ENDBRANCH  22  23
ENDBRANCH   6  22
BRANCH  18  29
ATOM     29  O           0     134.757 130.254 143.200  0.00  0.00    -0.360 OA
ATOM     30  H           0     134.120 130.869 142.812  0.00  0.00     0.213 HD
ENDBRANCH  18  29
BRANCH  18  31
ATOM     31  O           0     136.983 130.744 143.762  0.00  0.00    -0.360 OA
ATOM     32  H           0     137.339 130.274 144.529  0.00  0.00     0.213 HD
ENDBRANCH  18  31
BRANCH  17  33
ATOM     33  O           0     136.468 130.258 146.210  0.00  0.00    -0.244 OA
BRANCH  33  34
ATOM     34  S           0     136.011 129.176 147.179  0.00  0.00     0.252 S 
ATOM     35  O           0     135.296 129.857 148.247  0.00  0.00    -0.572 OA
ATOM     36  O           0     135.150 128.282 146.420  0.00  0.00    -0.572 OA
ATOM     37  O           0     137.216 128.514 147.654  0.00  0.00    -0.572 OA
ENDBRANCH  33  34
ENDBRANCH  17  33
TORSDOF 7
ENDMDL
MODEL 4
REMARK VINA RESULT:      -7.2     12.996     14.997
REMARK  7 active torsions:
REMARK  status: ('A' for Active; 'I' for Inactive)
REMARK    1  A    between atoms: C_6  and  C_7 
REMARK    2  A    between atoms: C_7  and  O_8 
REMARK    3  A    between atoms: O_8  and  C_9 
REMARK       I    between atoms: C_9  and  N_10 
REMARK    4  A    between atoms: C_22  and  O_23 
REMARK    5  A    between atoms: O_23  and  S_24 
REMARK    6  A    between atoms: C_28  and  O_29 
REMARK    7  A    between atoms: C_28  and  O_30 
ROOT
ATOM      1  N           0     128.901 134.325 132.056  0.00  0.00    -0.235 N 
ATOM      2  H           0     128.187 133.930 131.532  0.00  0.00     0.174 HD
ATOM      3  H           0     129.064 135.280 132.011  0.00  0.00     0.174 HD
ATOM      4  C           0     129.637 133.573 132.827  0.00  0.00     0.672 C 
ATOM      5  N           0     129.439 132.208 132.930  0.00  0.00    -0.218 N 
ATOM      6  C           0     130.586 131.365 133.258  0.00  0.00     0.151 C 
ATOM      7  C           0     131.337 131.852 134.482  0.00  0.00     0.180 C 
ATOM      8  N           0     130.582 131.479 135.697  0.00  0.00    -0.216 N 
ATOM      9  C           0     130.667 132.529 136.577  0.00  0.00     0.670 C 
ATOM     10  N           0     130.444 132.431 137.858  0.00  0.00    -0.235 N 
ATOM     11  H           0     130.200 131.575 138.243  0.00  0.00     0.174 HD
ATOM     12  H           0     130.522 133.214 138.425  0.00  0.00     0.174 HD
ATOM     13  C           0     131.456 133.365 134.577  0.00  0.00     0.220 C 
ATOM     14  N           0     131.016 133.695 135.942  0.00  0.00    -0.191 N 
ATOM     15  N           0     130.659 134.084 133.582  0.00  0.00    -0.180 N 
ATOM     16  C           0     131.233 135.441 133.531  0.00  0.00     0.183 C 
ATOM     17  C           0     132.758 135.219 133.667  0.00  0.00     0.230 C 
ATOM     18  C           0     132.903 133.842 134.364  0.00  0.00     0.238 C 
ATOM     19  H           0     128.561 131.820 132.788  0.00  0.00     0.178 HD
ATOM     20  H           0     130.110 130.644 135.845  0.00  0.00     0.178 HD
ATOM     21  H           0     130.982 134.584 136.328  0.00  0.00     0.180 HD
ENDROOT
BRANCH   6  22
ATOM     22  C           0     131.545 131.350 132.066  0.00  0.00     0.208 C 
BRANCH  22  23
ATOM     23  O           0     132.499 130.268 132.227  0.00  0.00    -0.302 OA
BRANCH  23  24
ATOM     24  C           0     132.075 128.990 132.212  0.00  0.00     0.358 C 
ATOM     25  N           0     132.094 128.261 133.346  0.00  0.00    -0.346 N 
ATOM     26  H           0     132.413 128.657 134.171  0.00  0.00     0.161 HD
ATOM     27  H           0     131.789 127.341 133.335  0.00  0.00     0.161 HD
ATOM     28  O           0     131.675 128.495 131.178  0.00  0.00    -0.239 OA
ENDBRANCH  23  24
ENDBRANCH  22  23
ENDBRANCH   6  22
BRANCH  18  29
ATOM     29  O           0     133.575 133.987 135.617  0.00  0.00    -0.360 OA
ATOM     30  H           0     133.111 134.681 136.105  0.00  0.00     0.213 HD
ENDBRANCH  18  29
BRANCH  18  31
ATOM     31  O           0     133.608 132.929 133.521  0.00  0.00    -0.360 OA
ATOM     32  H           0     134.462 132.761 133.943  0.00  0.00     0.213 HD
ENDBRANCH  18  31
BRANCH  17  33
ATOM     33  O           0     133.374 135.195 132.379  0.00  0.00    -0.244 OA
BRANCH  33  34
ATOM     34  S           0     134.541 136.171 132.431  0.00  0.00     0.252 S 
ATOM     35  O           0     135.154 136.008 133.740  0.00  0.00    -0.572 OA
ATOM     36  O           0     135.439 135.795 131.349  0.00  0.00    -0.572 OA
ATOM     37  O           0     133.976 137.498 132.245  0.00  0.00    -0.572 OA
ENDBRANCH  33  34
ENDBRANCH  17  33
TORSDOF 7
ENDMDL
MODEL 5
REMARK VINA RESULT:      -7.2      2.602      3.846
REMARK  7 active torsions:
REMARK  status: ('A' for Active; 'I' for Inactive)
REMARK    1  A    between atoms: C_6  and  C_7 
REMARK    2  A    between atoms: C_7  and  O_8 
REMARK    3  A    between atoms: O_8  and  C_9 
REMARK       I    between atoms: C_9  and  N_10 
REMARK    4  A    between atoms: C_22  and  O_23 
REMARK    5  A    between atoms: O_23  and  S_24 
REMARK    6  A    between atoms: C_28  and  O_29 
REMARK    7  A    between atoms: C_28  and  O_30 
ROOT
ATOM      1  N           0     135.257 133.203 148.042  0.00  0.00    -0.235 N 
ATOM      2  H           0     135.034 132.876 148.927  0.00  0.00     0.174 HD
ATOM      3  H           0     134.913 134.058 147.740  0.00  0.00     0.174 HD
ATOM      4  C           0     136.024 132.496 147.260  0.00  0.00     0.672 C 
ATOM      5  N           0     136.542 131.273 147.647  0.00  0.00    -0.218 N 
ATOM      6  C           0     136.831 130.285 146.612  0.00  0.00     0.151 C 
ATOM      7  C           0     137.674 130.848 145.485  0.00  0.00     0.180 C 
ATOM      8  N           0     139.081 130.944 145.930  0.00  0.00    -0.216 N 
ATOM      9  C           0     139.593 132.118 145.434  0.00  0.00     0.670 C 
ATOM     10  N           0     140.867 132.367 145.312  0.00  0.00    -0.235 N 
ATOM     11  H           0     141.519 131.701 145.581  0.00  0.00     0.174 HD
ATOM     12  H           0     141.163 133.218 144.952  0.00  0.00     0.174 HD
ATOM     13  C           0     137.316 132.273 145.093  0.00  0.00     0.220 C 
ATOM     14  N           0     138.598 132.996 145.082  0.00  0.00    -0.191 N 
ATOM     15  N           0     136.362 132.913 145.999  0.00  0.00    -0.180 N 
ATOM     16  C           0     135.811 134.052 145.243  0.00  0.00     0.183 C 
ATOM     17  C           0     135.664 133.519 143.799  0.00  0.00     0.230 C 
ATOM     18  C           0     136.666 132.340 143.701  0.00  0.00     0.238 C 
ATOM     19  H           0     136.712 131.078 148.582  0.00  0.00     0.178 HD
ATOM     20  H           0     139.555 130.298 146.476  0.00  0.00     0.178 HD
ATOM     21  H           0     138.720 133.933 144.861  0.00  0.00     0.180 HD
ENDROOT
BRANCH   6  22
ATOM     22  C           0     135.508 129.778 146.031  0.00  0.00     0.208 C 
BRANCH  22  23
ATOM     23  O           0     135.215 128.463 146.574  0.00  0.00    -0.302 OA
BRANCH  23  24
ATOM     24  C           0     134.104 128.273 147.311  0.00  0.00     0.358 C 
ATOM     25  N           0     133.671 129.246 148.138  0.00  0.00    -0.346 N 
ATOM     26  H           0     134.158 130.081 148.201  0.00  0.00     0.161 HD
ATOM     27  H           0     132.870 129.110 148.669  0.00  0.00     0.161 HD
ATOM     28  O           0     133.493 127.227 147.231  0.00  0.00    -0.239 OA
ENDBRANCH  23  24
ENDBRANCH  22  23
ENDBRANCH   6  22
BRANCH  18  29
ATOM     29  O           0     137.649 132.605 142.698  0.00  0.00    -0.360 OA
ATOM     30  H           0     138.106 133.415 142.961  0.00  0.00     0.213 HD
ENDBRANCH  18  29
BRANCH  18  31
ATOM     31  O           0     135.976 131.122 143.415  0.00  0.00    -0.360 OA
ATOM     32  H           0     136.276 130.827 142.544  0.00  0.00     0.213 HD
ENDBRANCH  18  31
BRANCH  17  33
ATOM     33  O           0     134.330 133.061 143.571  0.00  0.00    -0.244 OA
BRANCH  33  34
ATOM     34  S           0     133.913 133.584 142.202  0.00  0.00     0.252 S 
ATOM     35  O           0     134.943 133.155 141.268  0.00  0.00    -0.572 OA
ATOM     36  O           0     132.619 132.986 141.912  0.00  0.00    -0.572 OA
ATOM     37  O           0     133.841 135.031 142.321  0.00  0.00    -0.572 OA
ENDBRANCH  33  34
ENDBRANCH  17  33
TORSDOF 7
ENDMDL
MODEL 6
REMARK VINA RESULT:      -7.1      3.204      6.261
REMARK  7 active torsions:
REMARK  status: ('A' for Active; 'I' for Inactive)
REMARK    1  A    between atoms: C_6  and  C_7 
REMARK    2  A    between atoms: C_7  and  O_8 
REMARK    3  A    between atoms: O_8  and  C_9 
REMARK       I    between atoms: C_9  and  N_10 
REMARK    4  A    between atoms: C_22  and  O_23 
REMARK    5  A    between atoms: O_23  and  S_24 
REMARK    6  A    between atoms: C_28  and  O_29 
REMARK    7  A    between atoms: C_28  and  O_30 
ROOT
ATOM      1  N           0     136.153 134.589 147.539  0.00  0.00    -0.235 N 
ATOM      2  H           0     136.621 135.435 147.462  0.00  0.00     0.174 HD
ATOM      3  H           0     135.547 134.436 148.281  0.00  0.00     0.174 HD
ATOM      4  C           0     136.333 133.660 146.643  0.00  0.00     0.672 C 
ATOM      5  N           0     137.183 133.833 145.564  0.00  0.00    -0.218 N 
ATOM      6  C           0     137.817 132.651 144.987  0.00  0.00     0.151 C 
ATOM      7  C           0     136.824 131.553 144.666  0.00  0.00     0.180 C 
ATOM      8  N           0     136.099 131.898 143.424  0.00  0.00    -0.216 N 
ATOM      9  C           0     134.787 131.532 143.594  0.00  0.00     0.670 C 
ATOM     10  N           0     133.945 131.349 142.614  0.00  0.00    -0.235 N 
ATOM     11  H           0     134.235 131.472 141.697  0.00  0.00     0.174 HD
ATOM     12  H           0     133.030 131.089 142.804  0.00  0.00     0.174 HD
ATOM     13  C           0     135.720 131.391 145.699  0.00  0.00     0.220 C 
ATOM     14  N           0     134.470 131.383 144.921  0.00  0.00    -0.191 N 
ATOM     15  N           0     135.699 132.448 146.712  0.00  0.00    -0.180 N 
ATOM     16  C           0     134.907 131.902 147.828  0.00  0.00     0.183 C 
ATOM     17  C           0     135.319 130.413 147.899  0.00  0.00     0.230 C 
ATOM     18  C           0     135.856 130.076 146.484  0.00  0.00     0.238 C 
ATOM     19  H           0     137.351 134.716 145.200  0.00  0.00     0.178 HD
ATOM     20  H           0     136.481 132.311 142.634  0.00  0.00     0.178 HD
ATOM     21  H           0     133.576 131.285 145.284  0.00  0.00     0.180 HD
ENDROOT
BRANCH   6  22
ATOM     22  C           0     138.847 132.109 145.981  0.00  0.00     0.208 C 
BRANCH  22  23
ATOM     23  O           0     139.036 133.070 147.053  0.00  0.00    -0.302 OA
BRANCH  23  24
ATOM     24  C           0     139.351 132.643 148.291  0.00  0.00     0.358 C 
ATOM     25  N           0     138.912 131.442 148.720  0.00  0.00    -0.346 N 
ATOM     26  H           0     138.371 130.887 148.138  0.00  0.00     0.161 HD
ATOM     27  H           0     139.139 131.134 149.611  0.00  0.00     0.161 HD
ATOM     28  O           0     140.030 133.338 149.019  0.00  0.00    -0.239 OA
ENDBRANCH  23  24
ENDBRANCH  22  23
ENDBRANCH   6  22
BRANCH  18  29
ATOM     29  O           0     135.065 129.047 145.884  0.00  0.00    -0.360 OA
ATOM     30  H           0     135.441 128.203 146.170  0.00  0.00     0.213 HD
ENDBRANCH  18  29
BRANCH  18  31
ATOM     31  O           0     137.226 129.677 146.553  0.00  0.00    -0.360 OA
ATOM     32  H           0     137.238 128.779 146.913  0.00  0.00     0.213 HD
ENDBRANCH  18  31
BRANCH  17  33
ATOM     33  O           0     136.341 130.226 148.879  0.00  0.00    -0.244 OA
BRANCH  33  34
ATOM     34  S           0     136.077 128.880 149.540  0.00  0.00     0.252 S 
ATOM     35  O           0     134.780 128.432 149.055  0.00  0.00    -0.572 OA
ATOM     36  O           0     137.158 127.999 149.123  0.00  0.00    -0.572 OA
ATOM     37  O           0     136.079 129.119 150.974  0.00  0.00    -0.572 OA
ENDBRANCH  33  34
ENDBRANCH  17  33
TORSDOF 7
ENDMDL
MODEL 7
REMARK VINA RESULT:      -6.9      3.028      5.313
REMARK  7 active torsions:
REMARK  status: ('A' for Active; 'I' for Inactive)
REMARK    1  A    between atoms: C_6  and  C_7 
REMARK    2  A    between atoms: C_7  and  O_8 
REMARK    3  A    between atoms: O_8  and  C_9 
REMARK       I    between atoms: C_9  and  N_10 
REMARK    4  A    between atoms: C_22  and  O_23 
REMARK    5  A    between atoms: O_23  and  S_24 
REMARK    6  A    between atoms: C_28  and  O_29 
REMARK    7  A    between atoms: C_28  and  O_30 
ROOT
ATOM      1  N           0     139.351 132.985 144.676  0.00  0.00    -0.235 N 
ATOM      2  H           0     140.092 133.570 144.898  0.00  0.00     0.174 HD
ATOM      3  H           0     139.181 132.745 143.752  0.00  0.00     0.174 HD
ATOM      4  C           0     138.586 132.516 145.622  0.00  0.00     0.672 C 
ATOM      5  N           0     138.790 132.824 146.956  0.00  0.00    -0.218 N 
ATOM      6  C           0     137.637 132.822 147.851  0.00  0.00     0.151 C 
ATOM      7  C           0     136.825 131.546 147.756  0.00  0.00     0.180 C 
ATOM      8  N           0     137.525 130.468 148.486  0.00  0.00    -0.216 N 
ATOM      9  C           0     137.389 129.315 147.752  0.00  0.00     0.670 C 
ATOM     10  N           0     137.553 128.115 148.237  0.00  0.00    -0.235 N 
ATOM     11  H           0     137.785 127.998 149.171  0.00  0.00     0.174 HD
ATOM     12  H           0     137.441 127.341 147.663  0.00  0.00     0.174 HD
ATOM     13  C           0     136.688 131.001 146.343  0.00  0.00     0.220 C 
ATOM     14  N           0     137.060 129.580 146.447  0.00  0.00    -0.191 N 
ATOM     15  N           0     137.524 131.691 145.359  0.00  0.00    -0.180 N 
ATOM     16  C           0     136.942 131.354 144.048  0.00  0.00     0.183 C 
ATOM     17  C           0     135.414 131.364 144.292  0.00  0.00     0.230 C 
ATOM     18  C           0     135.249 131.127 145.815  0.00  0.00     0.238 C 
ATOM     19  H           0     139.677 133.035 147.288  0.00  0.00     0.178 HD
ATOM     20  H           0     137.996 130.558 149.329  0.00  0.00     0.178 HD
ATOM     21  H           0     137.068 128.941 145.717  0.00  0.00     0.180 HD
ENDROOT
BRANCH   6  22
ATOM     22  C           0     136.735 134.007 147.497  0.00  0.00     0.208 C 
BRANCH  22  23
ATOM     23  O           0     136.079 134.491 148.698  0.00  0.00    -0.302 OA
BRANCH  23  24
ATOM     24  C           0     136.418 135.688 149.214  0.00  0.00     0.358 C 
ATOM     25  N           0     135.473 136.476 149.764  0.00  0.00    -0.346 N 
ATOM     26  H           0     134.550 136.181 149.789  0.00  0.00     0.161 HD
ATOM     27  H           0     135.717 137.338 150.136  0.00  0.00     0.161 HD
ATOM     28  O           0     137.575 136.057 149.183  0.00  0.00    -0.239 OA
ENDBRANCH  23  24
ENDBRANCH  22  23
ENDBRANCH   6  22
BRANCH  18  29
ATOM     29  O           0     134.517 129.923 146.055  0.00  0.00    -0.360 OA
ATOM     30  H           0     134.252 129.580 145.190  0.00  0.00     0.213 HD
ENDBRANCH  18  29
BRANCH  18  31
ATOM     31  O           0     134.592 132.240 146.424  0.00  0.00    -0.360 OA
ATOM     32  H           0     133.692 131.954 146.635  0.00  0.00     0.213 HD
ENDBRANCH  18  31
BRANCH  17  33
ATOM     33  O           0     134.860 132.626 143.919  0.00  0.00    -0.244 OA
BRANCH  33  34
ATOM     34  S           0     134.304 132.464 142.511  0.00  0.00     0.252 S 
ATOM     35  O           0     133.193 133.397 142.398  0.00  0.00    -0.572 OA
ATOM     36  O           0     135.392 132.787 141.601  0.00  0.00    -0.572 OA
ATOM     37  O           0     133.877 131.078 142.396  0.00  0.00    -0.572 OA
ENDBRANCH  33  34
ENDBRANCH  17  33
TORSDOF 7
ENDMDL
MODEL 8
REMARK VINA RESULT:      -6.9     14.125     16.420
REMARK  7 active torsions:
REMARK  status: ('A' for Active; 'I' for Inactive)
REMARK    1  A    between atoms: C_6  and  C_7 
REMARK    2  A    between atoms: C_7  and  O_8 
REMARK    3  A    between atoms: O_8  and  C_9 
REMARK       I    between atoms: C_9  and  N_10 
REMARK    4  A    between atoms: C_22  and  O_23 
REMARK    5  A    between atoms: O_23  and  S_24 
REMARK    6  A    between atoms: C_28  and  O_29 
REMARK    7  A    between atoms: C_28  and  O_30 
ROOT
ATOM      1  N           0     134.020 133.739 130.875  0.00  0.00    -0.235 N 
ATOM      2  H           0     134.736 133.086 130.916  0.00  0.00     0.174 HD
ATOM      3  H           0     134.044 134.445 130.211  0.00  0.00     0.174 HD
ATOM      4  C           0     133.023 133.666 131.712  0.00  0.00     0.672 C 
ATOM      5  N           0     132.941 132.675 132.675  0.00  0.00    -0.218 N 
ATOM      6  C           0     132.221 132.969 133.910  0.00  0.00     0.151 C 
ATOM      7  C           0     130.837 133.534 133.660  0.00  0.00     0.180 C 
ATOM      8  N           0     129.926 132.437 133.268  0.00  0.00    -0.216 N 
ATOM      9  C           0     129.107 132.913 132.274  0.00  0.00     0.670 C 
ATOM     10  N           0     127.969 132.369 131.941  0.00  0.00    -0.235 N 
ATOM     11  H           0     127.655 131.579 132.406  0.00  0.00     0.174 HD
ATOM     12  H           0     127.437 132.757 131.228  0.00  0.00     0.174 HD
ATOM     13  C           0     130.763 134.504 132.491  0.00  0.00     0.220 C 
ATOM     14  N           0     129.633 134.030 131.675  0.00  0.00    -0.191 N 
ATOM     15  N           0     131.991 134.567 131.697  0.00  0.00    -0.180 N 
ATOM     16  C           0     131.900 135.827 130.938  0.00  0.00     0.183 C 
ATOM     17  C           0     131.259 136.827 131.929  0.00  0.00     0.230 C 
ATOM     18  C           0     130.503 135.947 132.957  0.00  0.00     0.238 C 
ATOM     19  H           0     133.350 131.807 132.532  0.00  0.00     0.178 HD
ATOM     20  H           0     129.912 131.542 133.644  0.00  0.00     0.178 HD
ATOM     21  H           0     129.313 134.439 130.856  0.00  0.00     0.180 HD
ENDROOT
BRANCH   6  22
ATOM     22  C           0     133.028 133.986 134.722  0.00  0.00     0.208 C 
BRANCH  22  23
ATOM     23  O           0     132.577 133.970 136.102  0.00  0.00    -0.302 OA
BRANCH  23  24
ATOM     24  C           0     132.847 135.013 136.909  0.00  0.00     0.358 C 
ATOM     25  N           0     132.070 136.114 136.870  0.00  0.00    -0.346 N 
ATOM     26  H           0     131.317 136.154 136.261  0.00  0.00     0.161 HD
ATOM     27  H           0     132.264 136.866 137.451  0.00  0.00     0.161 HD
ATOM     28  O           0     133.790 134.962 137.672  0.00  0.00    -0.239 OA
ENDBRANCH  23  24
ENDBRANCH  22  23
ENDBRANCH   6  22
BRANCH  18  29
ATOM     29  O           0     129.104 136.240 132.930  0.00  0.00    -0.360 OA
ATOM     30  H           0     128.658 135.521 133.399  0.00  0.00     0.213 HD
ENDBRANCH  18  29
BRANCH  18  31
ATOM     31  O           0     131.030 136.148 134.269  0.00  0.00    -0.360 OA
ATOM     32  H           0     131.641 135.418 134.441  0.00  0.00     0.213 HD
ENDBRANCH  18  31
BRANCH  17  33
ATOM     33  O           0     132.269 137.599 132.579  0.00  0.00    -0.244 OA
BRANCH  33  34
ATOM     34  S           0     131.822 139.054 132.512  0.00  0.00     0.252 S 
ATOM     35  O           0     133.033 139.858 132.565  0.00  0.00    -0.572 OA
ATOM     36  O           0     131.111 139.207 131.252  0.00  0.00    -0.572 OA
ATOM     37  O           0     130.962 139.272 133.664  0.00  0.00    -0.572 OA
ENDBRANCH  33  34
ENDBRANCH  17  33
TORSDOF 7
ENDMDL
MODEL 9
REMARK VINA RESULT:      -6.8      2.988      5.330
REMARK  7 active torsions:
REMARK  status: ('A' for Active; 'I' for Inactive)
REMARK    1  A    between atoms: C_6  and  C_7 
REMARK    2  A    between atoms: C_7  and  O_8 
REMARK    3  A    between atoms: O_8  and  C_9 
REMARK       I    between atoms: C_9  and  N_10 
REMARK    4  A    between atoms: C_22  and  O_23 
REMARK    5  A    between atoms: O_23  and  S_24 
REMARK    6  A    between atoms: C_28  and  O_29 
REMARK    7  A    between atoms: C_28  and  O_30 
ROOT
ATOM      1  N           0     139.256 131.249 148.985  0.00  0.00    -0.235 N 
ATOM      2  H           0     139.467 131.414 149.917  0.00  0.00     0.174 HD
ATOM      3  H           0     139.967 131.068 148.351  0.00  0.00     0.174 HD
ATOM      4  C           0     138.015 131.264 148.585  0.00  0.00     0.672 C 
ATOM      5  N           0     136.965 131.512 149.452  0.00  0.00    -0.218 N 
ATOM      6  C           0     135.752 132.120 148.913  0.00  0.00     0.151 C 
ATOM      7  C           0     135.227 131.392 147.691  0.00  0.00     0.180 C 
ATOM      8  N           0     134.541 130.154 148.119  0.00  0.00    -0.216 N 
ATOM      9  C           0     134.859 129.171 147.215  0.00  0.00     0.670 C 
ATOM     10  N           0     134.175 128.072 147.057  0.00  0.00    -0.235 N 
ATOM     11  H           0     133.386 127.911 147.597  0.00  0.00     0.174 HD
ATOM     12  H           0     134.455 127.417 146.399  0.00  0.00     0.174 HD
ATOM     13  C           0     136.311 130.901 146.746  0.00  0.00     0.220 C 
ATOM     14  N           0     135.987 129.486 146.499  0.00  0.00    -0.191 N 
ATOM     15  N           0     137.668 131.042 147.279  0.00  0.00    -0.180 N 
ATOM     16  C           0     138.557 130.953 146.107  0.00  0.00     0.183 C 
ATOM     17  C           0     137.802 131.715 144.993  0.00  0.00     0.230 C 
ATOM     18  C           0     136.312 131.677 145.418  0.00  0.00     0.238 C 
ATOM     19  H           0     137.032 131.286 150.393  0.00  0.00     0.178 HD
ATOM     20  H           0     133.971 130.055 148.897  0.00  0.00     0.178 HD
ATOM     21  H           0     136.484 128.881 145.926  0.00  0.00     0.180 HD
ENDROOT
BRANCH   6  22
ATOM     22  C           0     136.055 133.570 148.530  0.00  0.00     0.208 C 
BRANCH  22  23
ATOM     23  O           0     135.910 134.419 149.699  0.00  0.00    -0.302 OA
BRANCH  23  24
ATOM     24  C           0     136.217 135.728 149.621  0.00  0.00     0.358 C 
ATOM     25  N           0     135.298 136.656 149.955  0.00  0.00    -0.346 N 
ATOM     26  H           0     134.417 136.381 150.250  0.00  0.00     0.161 HD
ATOM     27  H           0     135.518 137.599 149.899  0.00  0.00     0.161 HD
ATOM     28  O           0     137.321 136.072 149.251  0.00  0.00    -0.239 OA
ENDBRANCH  23  24
ENDBRANCH  22  23
ENDBRANCH   6  22
BRANCH  18  29
ATOM     29  O           0     135.532 130.992 144.435  0.00  0.00    -0.360 OA
ATOM     30  H           0     135.718 130.049 144.536  0.00  0.00     0.213 HD
ENDBRANCH  18  29
BRANCH  18  31
ATOM     31  O           0     135.816 133.001 145.616  0.00  0.00    -0.360 OA
ATOM     32  H           0     136.268 133.357 146.394  0.00  0.00     0.213 HD
ENDBRANCH  18  31
BRANCH  17  33
ATOM     33  O           0     138.264 133.064 144.912  0.00  0.00    -0.244 OA
BRANCH  33  34
ATOM     34  S           0     138.530 133.351 143.440  0.00  0.00     0.252 S 
ATOM     35  O           0     138.254 134.765 143.241  0.00  0.00    -0.572 OA
ATOM     36  O           0     139.928 133.021 143.204  0.00  0.00    -0.572 OA
ATOM     37  O           0     137.625 132.498 142.686  0.00  0.00    -0.572 OA
ENDBRANCH  33  34
ENDBRANCH  17  33
TORSDOF 7
ENDMDL
