# created with PyMOL 2.3.4
@<TRIPOS>MOLECULE
ligand_out_0001
32 34 1                 
SMALL
USER_CHARGES
@<TRIPOS>ATOM
1	   N	139.522	130.645	145.879	N.3	1	UNK0	-0.235	
2	   N	138.452	132.536	144.977	N.3	1	UNK0	-0.218	
3	   N	136.505	134.501	146.334	N.3	1	UNK0	-0.216	
4	   N	136.193	135.273	148.548	N.3	1	UNK0	-0.235	
5	   N	136.361	132.975	148.011	N.3	1	UNK0	-0.191	
6	   N	137.399	131.279	146.635	N.3	1	UNK0	-0.183	
7	   N	133.617	133.073	141.775	N.pl3	1	UNK0	-0.337	
8	   C	138.499	131.452	145.837	C.3	1	UNK0	0.672	
9	   C	137.146	132.999	144.519	C.3	1	UNK0	0.151	
10	   C	136.173	133.227	145.659	C.3	1	UNK0	0.180	
11	   C	136.344	134.308	147.684	C.3	1	UNK0	0.670	
12	   C	136.263	132.192	146.769	C.3	1	UNK0	0.217	
13	   C	137.074	130.124	147.490	C.3	1	UNK0	0.150	
14	   C	135.553	129.915	147.292	C.3	1	UNK0	0.093	
15	   C	135.018	131.290	146.816	C.3	1	UNK0	0.209	
16	   C	136.556	131.953	143.571	C.2	1	UNK0	0.208	
17	   C	134.514	132.209	142.291	C.2	1	UNK0	0.362	
18	   C	132.248	132.630	141.498	C.3	1	UNK0	0.154	
19	   C	134.009	134.456	141.492	C.3	1	UNK0	0.154	
20	   O	135.772	132.617	142.546	O.2	1	UNK0	-0.302	
21	   O	134.187	131.063	142.525	O.co2	1	UNK0	-0.238	
22	   O	134.061	131.801	147.746	O.2	1	UNK0	-0.362	
23	   O	134.438	131.175	145.515	O.2	1	UNK0	-0.362	
24	   H	140.283	130.795	145.297	 H	1	UNK0	0.174	
25	   H	139.524	129.897	146.498	 H	1	UNK0	0.174	
26	   H	136.190	136.195	148.249	 H	1	UNK0	0.174	
27	   H	136.083	135.067	149.490	 H	1	UNK0	0.174	
28	   H	139.267	132.978	144.688	 H	1	UNK0	0.178	
29	   H	136.785	135.322	145.901	 H	1	UNK0	0.178	
30	   H	136.424	132.612	148.909	 H	1	UNK0	0.180	
31	   H	133.877	131.091	148.377	 H	1	UNK0	0.213	
32	   H	133.761	131.861	145.449	 H	1	UNK0	0.213	
@<TRIPOS>BOND
1 1 8 1
2 1 24 1
3 1 25 1
4 2 9 1
5 2 28 1
6 3 11 1
7 3 29 1
8 4 26 1
9 4 27 1
10 5 30 1
11 6 13 1
12 7 18 1
13 7 19 1
14 2 8 1
15 6 8 1
16 9 10 1
17 9 16 1
18 3 10 1
19 10 12 1
20 4 11 1
21 5 11 1
22 5 12 1
23 6 12 1
24 12 15 1
25 13 14 1
26 14 15 1
27 15 22 2
28 15 23 2
29 16 20 2
30 7 17 1
31 17 21 2
32 17 20 2
33 22 31 1
34 23 32 1
@<TRIPOS>SUBSTRUCTURE
1	UNK0	1	GROUP	1 ****	UNK
