MODEL 1
REMARK VINA RESULT:      -7.0      0.000      0.000
REMARK  5 active torsions:
REMARK  status: ('A' for Active; 'I' for Inactive)
REMARK    1  A    between atoms: C_6  and  C_7 
REMARK    2  A    between atoms: C_7  and  O_8 
REMARK    3  A    between atoms: O_8  and  C_9 
REMARK       I    between atoms: C_9  and  N_10 
REMARK    4  A    between atoms: C_25  and  O_26 
REMARK    5  A    between atoms: C_25  and  O_27 
ROOT
ATOM      1  N           0     139.522 130.645 145.879  0.00  0.00    -0.235 N 
ATOM      2  H           0     140.283 130.795 145.297  0.00  0.00     0.174 HD
ATOM      3  H           0     139.524 129.897 146.498  0.00  0.00     0.174 HD
ATOM      4  C           0     138.499 131.452 145.837  0.00  0.00     0.672 C 
ATOM      5  N           0     138.452 132.536 144.977  0.00  0.00    -0.218 N 
ATOM      6  C           0     137.146 132.999 144.519  0.00  0.00     0.151 C 
ATOM      7  C           0     136.173 133.227 145.659  0.00  0.00     0.180 C 
ATOM      8  N           0     136.505 134.501 146.334  0.00  0.00    -0.216 N 
ATOM      9  C           0     136.344 134.308 147.684  0.00  0.00     0.670 C 
ATOM     10  N           0     136.193 135.273 148.548  0.00  0.00    -0.235 N 
ATOM     11  H           0     136.190 136.195 148.249  0.00  0.00     0.174 HD
ATOM     12  H           0     136.083 135.067 149.490  0.00  0.00     0.174 HD
ATOM     13  C           0     136.263 132.192 146.769  0.00  0.00     0.217 C 
ATOM     14  N           0     136.361 132.975 148.011  0.00  0.00    -0.191 N 
ATOM     15  N           0     137.399 131.279 146.635  0.00  0.00    -0.183 N 
ATOM     16  C           0     137.074 130.124 147.490  0.00  0.00     0.150 C 
ATOM     17  C           0     135.553 129.915 147.292  0.00  0.00     0.093 C 
ATOM     18  C           0     135.018 131.290 146.816  0.00  0.00     0.209 C 
ATOM     19  H           0     139.267 132.978 144.688  0.00  0.00     0.178 HD
ATOM     20  H           0     136.785 135.322 145.901  0.00  0.00     0.178 HD
ATOM     21  H           0     136.424 132.612 148.909  0.00  0.00     0.180 HD
ENDROOT
BRANCH   6  22
ATOM     22  C           0     136.556 131.953 143.571  0.00  0.00     0.208 C 
BRANCH  22  23
ATOM     23  O           0     135.772 132.617 142.546  0.00  0.00    -0.302 OA
BRANCH  23  24
ATOM     24  C           0     134.514 132.209 142.291  0.00  0.00     0.362 C 
ATOM     25  N           0     133.617 133.073 141.775  0.00  0.00    -0.337 N 
ATOM     26  C           0     132.248 132.630 141.498  0.00  0.00     0.154 C 
ATOM     27  C           0     134.009 134.456 141.492  0.00  0.00     0.154 C 
ATOM     28  O           0     134.187 131.063 142.525  0.00  0.00    -0.238 OA
ENDBRANCH  23  24
ENDBRANCH  22  23
ENDBRANCH   6  22
BRANCH  18  29
ATOM     29  O           0     134.061 131.801 147.746  0.00  0.00    -0.362 OA
ATOM     30  H           0     133.877 131.091 148.377  0.00  0.00     0.213 HD
ENDBRANCH  18  29
BRANCH  18  31
ATOM     31  O           0     134.438 131.175 145.515  0.00  0.00    -0.362 OA
ATOM     32  H           0     133.761 131.861 145.449  0.00  0.00     0.213 HD
ENDBRANCH  18  31
TORSDOF 5
ENDMDL
MODEL 2
REMARK VINA RESULT:      -6.9      2.206      3.376
REMARK  5 active torsions:
REMARK  status: ('A' for Active; 'I' for Inactive)
REMARK    1  A    between atoms: C_6  and  C_7 
REMARK    2  A    between atoms: C_7  and  O_8 
REMARK    3  A    between atoms: O_8  and  C_9 
REMARK       I    between atoms: C_9  and  N_10 
REMARK    4  A    between atoms: C_25  and  O_26 
REMARK    5  A    between atoms: C_25  and  O_27 
ROOT
ATOM      1  N           0     136.311 134.679 147.803  0.00  0.00    -0.235 N 
ATOM      2  H           0     135.839 135.448 147.447  0.00  0.00     0.174 HD
ATOM      3  H           0     136.868 134.774 148.592  0.00  0.00     0.174 HD
ATOM      4  C           0     136.192 133.516 147.226  0.00  0.00     0.672 C 
ATOM      5  N           0     135.405 133.329 146.103  0.00  0.00    -0.218 N 
ATOM      6  C           0     135.773 132.267 145.171  0.00  0.00     0.151 C 
ATOM      7  C           0     135.983 130.932 145.858  0.00  0.00     0.180 C 
ATOM      8  N           0     134.667 130.339 146.180  0.00  0.00    -0.216 N 
ATOM      9  C           0     134.768 129.755 147.419  0.00  0.00     0.670 C 
ATOM     10  N           0     133.949 128.844 147.868  0.00  0.00    -0.235 N 
ATOM     11  H           0     133.213 128.540 147.315  0.00  0.00     0.174 HD
ATOM     12  H           0     134.078 128.472 148.755  0.00  0.00     0.174 HD
ATOM     13  C           0     136.679 131.030 147.207  0.00  0.00     0.217 C 
ATOM     14  N           0     135.837 130.248 148.126  0.00  0.00    -0.191 N 
ATOM     15  N           0     136.843 132.402 147.688  0.00  0.00    -0.183 N 
ATOM     16  C           0     137.891 132.330 148.722  0.00  0.00     0.150 C 
ATOM     17  C           0     138.906 131.301 148.168  0.00  0.00     0.093 C 
ATOM     18  C           0     138.097 130.439 147.166  0.00  0.00     0.209 C 
ATOM     19  H           0     134.629 133.888 145.940  0.00  0.00     0.178 HD
ATOM     20  H           0     133.877 130.359 145.619  0.00  0.00     0.178 HD
ATOM     21  H           0     136.009 130.102 149.069  0.00  0.00     0.180 HD
ENDROOT
BRANCH   6  22
ATOM     22  C           0     137.067 132.662 144.457  0.00  0.00     0.208 C 
BRANCH  22  23
ATOM     23  O           0     136.774 133.652 143.436  0.00  0.00    -0.302 OA
BRANCH  23  24
ATOM     24  C           0     135.786 133.430 142.548  0.00  0.00     0.362 C 
ATOM     25  N           0     134.773 134.313 142.432  0.00  0.00    -0.337 N 
ATOM     26  C           0     133.698 134.073 141.467  0.00  0.00     0.154 C 
ATOM     27  C           0     134.747 135.512 143.273  0.00  0.00     0.154 C 
ATOM     28  O           0     135.807 132.436 141.851  0.00  0.00    -0.238 OA
ENDBRANCH  23  24
ENDBRANCH  22  23
ENDBRANCH   6  22
BRANCH  18  29
ATOM     29  O           0     138.085 129.071 147.580  0.00  0.00    -0.362 OA
ATOM     30  H           0     138.119 128.536 146.776  0.00  0.00     0.213 HD
ENDBRANCH  18  29
BRANCH  18  31
ATOM     31  O           0     138.647 130.557 145.852  0.00  0.00    -0.362 OA
ATOM     32  H           0     139.184 131.361 145.845  0.00  0.00     0.213 HD
ENDBRANCH  18  31
TORSDOF 5
ENDMDL
MODEL 3
REMARK VINA RESULT:      -6.8      2.755      4.693
REMARK  5 active torsions:
REMARK  status: ('A' for Active; 'I' for Inactive)
REMARK    1  A    between atoms: C_6  and  C_7 
REMARK    2  A    between atoms: C_7  and  O_8 
REMARK    3  A    between atoms: O_8  and  C_9 
REMARK       I    between atoms: C_9  and  N_10 
REMARK    4  A    between atoms: C_25  and  O_26 
REMARK    5  A    between atoms: C_25  and  O_27 
ROOT
ATOM      1  N           0     134.722 136.637 142.927  0.00  0.00    -0.235 N 
ATOM      2  H           0     133.907 137.052 142.603  0.00  0.00     0.174 HD
ATOM      3  H           0     135.496 137.184 143.136  0.00  0.00     0.174 HD
ATOM      4  C           0     134.776 135.344 143.088  0.00  0.00     0.672 C 
ATOM      5  N           0     133.698 134.522 142.811  0.00  0.00    -0.218 N 
ATOM      6  C           0     133.965 133.145 142.407  0.00  0.00     0.151 C 
ATOM      7  C           0     134.904 132.428 143.357  0.00  0.00     0.180 C 
ATOM      8  N           0     134.160 132.038 144.574  0.00  0.00    -0.216 N 
ATOM      9  C           0     134.989 132.244 145.650  0.00  0.00     0.670 C 
ATOM     10  N           0     134.824 131.689 146.818  0.00  0.00    -0.235 N 
ATOM     11  H           0     134.078 131.089 146.968  0.00  0.00     0.174 HD
ATOM     12  H           0     135.448 131.878 147.537  0.00  0.00     0.174 HD
ATOM     13  C           0     136.037 133.295 143.883  0.00  0.00     0.217 C 
ATOM     14  N           0     136.013 133.105 145.342  0.00  0.00    -0.191 N 
ATOM     15  N           0     135.906 134.711 143.537  0.00  0.00    -0.183 N 
ATOM     16  C           0     137.252 135.283 143.720  0.00  0.00     0.150 C 
ATOM     17  C           0     138.210 134.179 143.209  0.00  0.00     0.093 C 
ATOM     18  C           0     137.401 132.862 143.322  0.00  0.00     0.209 C 
ATOM     19  H           0     132.788 134.852 142.885  0.00  0.00     0.178 HD
ATOM     20  H           0     133.253 131.699 144.607  0.00  0.00     0.178 HD
ATOM     21  H           0     136.619 133.516 145.979  0.00  0.00     0.180 HD
ENDROOT
BRANCH   6  22
ATOM     22  C           0     134.588 133.152 141.010  0.00  0.00     0.208 C 
BRANCH  22  23
ATOM     23  O           0     134.325 134.428 140.369  0.00  0.00    -0.302 OA
BRANCH  23  24
ATOM     24  C           0     133.303 134.547 139.501  0.00  0.00     0.362 C 
ATOM     25  N           0     133.542 134.907 138.224  0.00  0.00    -0.337 N 
ATOM     26  C           0     132.430 135.036 137.278  0.00  0.00     0.154 C 
ATOM     27  C           0     134.913 135.170 137.781  0.00  0.00     0.154 C 
ATOM     28  O           0     132.166 134.329 139.867  0.00  0.00    -0.238 OA
ENDBRANCH  23  24
ENDBRANCH  22  23
ENDBRANCH   6  22
BRANCH  18  29
ATOM     29  O           0     138.048 131.955 144.216  0.00  0.00    -0.362 OA
ATOM     30  H           0     138.776 132.441 144.629  0.00  0.00     0.213 HD
ENDBRANCH  18  29
BRANCH  18  31
ATOM     31  O           0     137.241 132.265 142.033  0.00  0.00    -0.362 OA
ATOM     32  H           0     136.306 132.037 141.944  0.00  0.00     0.213 HD
ENDBRANCH  18  31
TORSDOF 5
ENDMDL
MODEL 4
REMARK VINA RESULT:      -6.8     10.395     13.200
REMARK  5 active torsions:
REMARK  status: ('A' for Active; 'I' for Inactive)
REMARK    1  A    between atoms: C_6  and  C_7 
REMARK    2  A    between atoms: C_7  and  O_8 
REMARK    3  A    between atoms: O_8  and  C_9 
REMARK       I    between atoms: C_9  and  N_10 
REMARK    4  A    between atoms: C_25  and  O_26 
REMARK    5  A    between atoms: C_25  and  O_27 
ROOT
ATOM      1  N           0     128.891 133.669 131.911  0.00  0.00    -0.235 N 
ATOM      2  H           0     128.228 133.171 131.407  0.00  0.00     0.174 HD
ATOM      3  H           0     128.985 134.626 131.776  0.00  0.00     0.174 HD
ATOM      4  C           0     129.653 133.055 132.772  0.00  0.00     0.672 C 
ATOM      5  N           0     129.553 131.694 133.003  0.00  0.00    -0.218 N 
ATOM      6  C           0     130.746 130.979 133.446  0.00  0.00     0.151 C 
ATOM      7  C           0     131.415 131.637 134.637  0.00  0.00     0.180 C 
ATOM      8  N           0     130.645 131.325 135.860  0.00  0.00    -0.216 N 
ATOM      9  C           0     130.621 132.459 136.635  0.00  0.00     0.670 C 
ATOM     10  N           0     130.360 132.467 137.913  0.00  0.00    -0.235 N 
ATOM     11  H           0     130.167 131.636 138.373  0.00  0.00     0.174 HD
ATOM     12  H           0     130.359 133.305 138.402  0.00  0.00     0.174 HD
ATOM     13  C           0     131.418 133.157 134.586  0.00  0.00     0.217 C 
ATOM     14  N           0     130.906 133.582 135.898  0.00  0.00    -0.191 N 
ATOM     15  N           0     130.607 133.713 133.502  0.00  0.00    -0.183 N 
ATOM     16  C           0     131.079 135.099 133.334  0.00  0.00     0.150 C 
ATOM     17  C           0     132.611 135.009 133.536  0.00  0.00     0.093 C 
ATOM     18  C           0     132.832 133.722 134.369  0.00  0.00     0.209 C 
ATOM     19  H           0     128.711 131.227 132.876  0.00  0.00     0.178 HD
ATOM     20  H           0     130.233 130.474 136.076  0.00  0.00     0.178 HD
ATOM     21  H           0     130.791 134.498 136.195  0.00  0.00     0.180 HD
ENDROOT
BRANCH   6  22
ATOM     22  C           0     131.746 130.923 132.289  0.00  0.00     0.208 C 
BRANCH  22  23
ATOM     23  O           0     131.698 129.610 131.672  0.00  0.00    -0.302 OA
BRANCH  23  24
ATOM     24  C           0     131.946 128.510 132.409  0.00  0.00     0.362 C 
ATOM     25  N           0     131.102 127.460 132.358  0.00  0.00    -0.337 N 
ATOM     26  C           0     131.372 126.264 133.159  0.00  0.00     0.154 C 
ATOM     27  C           0     129.914 127.516 131.503  0.00  0.00     0.154 C 
ATOM     28  O           0     132.931 128.464 133.118  0.00  0.00    -0.238 OA
ENDBRANCH  23  24
ENDBRANCH  22  23
ENDBRANCH   6  22
BRANCH  18  29
ATOM     29  O           0     133.446 134.037 135.621  0.00  0.00    -0.362 OA
ATOM     30  H           0     133.532 133.204 136.106  0.00  0.00     0.213 HD
ENDBRANCH  18  29
BRANCH  18  31
ATOM     31  O           0     133.634 132.789 133.640  0.00  0.00    -0.362 OA
ATOM     32  H           0     134.513 133.182 133.557  0.00  0.00     0.213 HD
ENDBRANCH  18  31
TORSDOF 5
ENDMDL
MODEL 5
REMARK VINA RESULT:      -6.7      2.039      5.099
REMARK  5 active torsions:
REMARK  status: ('A' for Active; 'I' for Inactive)
REMARK    1  A    between atoms: C_6  and  C_7 
REMARK    2  A    between atoms: C_7  and  O_8 
REMARK    3  A    between atoms: O_8  and  C_9 
REMARK       I    between atoms: C_9  and  N_10 
REMARK    4  A    between atoms: C_25  and  O_26 
REMARK    5  A    between atoms: C_25  and  O_27 
ROOT
ATOM      1  N           0     136.041 134.410 146.940  0.00  0.00    -0.235 N 
ATOM      2  H           0     136.515 135.200 147.244  0.00  0.00     0.174 HD
ATOM      3  H           0     135.549 133.864 147.575  0.00  0.00     0.174 HD
ATOM      4  C           0     136.060 134.083 145.678  0.00  0.00     0.672 C 
ATOM      5  N           0     136.742 134.831 144.734  0.00  0.00    -0.218 N 
ATOM      6  C           0     137.251 134.149 143.548  0.00  0.00     0.151 C 
ATOM      7  C           0     136.193 133.317 142.852  0.00  0.00     0.180 C 
ATOM      8  N           0     135.299 134.212 142.083  0.00  0.00    -0.216 N 
ATOM      9  C           0     134.018 133.738 142.225  0.00  0.00     0.670 C 
ATOM     10  N           0     133.035 134.037 141.422  0.00  0.00    -0.235 N 
ATOM     11  H           0     133.186 134.628 140.669  0.00  0.00     0.174 HD
ATOM     12  H           0     132.151 133.667 141.579  0.00  0.00     0.174 HD
ATOM     13  C           0     135.252 132.589 143.799  0.00  0.00     0.217 C 
ATOM     14  N           0     133.901 132.912 143.315  0.00  0.00    -0.191 N 
ATOM     15  N           0     135.412 132.974 145.202  0.00  0.00    -0.183 N 
ATOM     16  C           0     134.782 131.890 145.977  0.00  0.00     0.150 C 
ATOM     17  C           0     135.161 130.600 145.211  0.00  0.00     0.093 C 
ATOM     18  C           0     135.469 131.067 143.766  0.00  0.00     0.209 C 
ATOM     19  H           0     136.877 135.784 144.857  0.00  0.00     0.178 HD
ATOM     20  H           0     135.570 134.991 141.573  0.00  0.00     0.178 HD
ATOM     21  H           0     133.068 132.593 143.698  0.00  0.00     0.180 HD
ENDROOT
BRANCH   6  22
ATOM     22  C           0     138.404 133.233 143.962  0.00  0.00     0.208 C 
BRANCH  22  23
ATOM     23  O           0     138.471 133.163 145.411  0.00  0.00    -0.302 OA
BRANCH  23  24
ATOM     24  C           0     138.764 131.996 146.016  0.00  0.00     0.362 C 
ATOM     25  N           0     139.137 131.984 147.311  0.00  0.00    -0.337 N 
ATOM     26  C           0     139.457 130.715 147.970  0.00  0.00     0.154 C 
ATOM     27  C           0     139.225 133.239 148.061  0.00  0.00     0.154 C 
ATOM     28  O           0     138.692 130.955 145.395  0.00  0.00    -0.238 OA
ENDBRANCH  23  24
ENDBRANCH  22  23
ENDBRANCH   6  22
BRANCH  18  29
ATOM     29  O           0     134.572 130.450 142.840  0.00  0.00    -0.362 OA
ATOM     30  H           0     133.851 131.078 142.690  0.00  0.00     0.213 HD
ENDBRANCH  18  29
BRANCH  18  31
ATOM     31  O           0     136.824 130.765 143.424  0.00  0.00    -0.362 OA
ATOM     32  H           0     136.865 130.717 142.460  0.00  0.00     0.213 HD
ENDBRANCH  18  31
TORSDOF 5
ENDMDL
MODEL 6
REMARK VINA RESULT:      -6.7      2.348      5.545
REMARK  5 active torsions:
REMARK  status: ('A' for Active; 'I' for Inactive)
REMARK    1  A    between atoms: C_6  and  C_7 
REMARK    2  A    between atoms: C_7  and  O_8 
REMARK    3  A    between atoms: O_8  and  C_9 
REMARK       I    between atoms: C_9  and  N_10 
REMARK    4  A    between atoms: C_25  and  O_26 
REMARK    5  A    between atoms: C_25  and  O_27 
ROOT
ATOM      1  N           0     138.830 130.790 145.542  0.00  0.00    -0.235 N 
ATOM      2  H           0     138.982 130.067 146.170  0.00  0.00     0.174 HD
ATOM      3  H           0     139.573 131.161 145.039  0.00  0.00     0.174 HD
ATOM      4  C           0     137.627 131.260 145.367  0.00  0.00     0.672 C 
ATOM      5  N           0     136.534 130.760 146.054  0.00  0.00    -0.218 N 
ATOM      6  C           0     135.410 131.656 146.309  0.00  0.00     0.151 C 
ATOM      7  C           0     134.928 132.361 145.057  0.00  0.00     0.180 C 
ATOM      8  N           0     134.129 131.418 144.244  0.00  0.00    -0.216 N 
ATOM      9  C           0     134.446 131.636 142.926  0.00  0.00     0.670 C 
ATOM     10  N           0     133.701 131.262 141.923  0.00  0.00    -0.235 N 
ATOM     11  H           0     132.865 130.800 142.086  0.00  0.00     0.174 HD
ATOM     12  H           0     133.984 131.448 141.013  0.00  0.00     0.174 HD
ATOM     13  C           0     136.044 132.795 144.120  0.00  0.00     0.217 C 
ATOM     14  N           0     135.643 132.295 142.795  0.00  0.00    -0.191 N 
ATOM     15  N           0     137.363 132.284 144.495  0.00  0.00    -0.183 N 
ATOM     16  C           0     138.330 133.139 143.784  0.00  0.00     0.150 C 
ATOM     17  C           0     137.713 134.557 143.858  0.00  0.00     0.093 C 
ATOM     18  C           0     136.197 134.325 144.077  0.00  0.00     0.209 C 
ATOM     19  H           0     136.516 129.839 146.358  0.00  0.00     0.178 HD
ATOM     20  H           0     133.497 130.765 144.582  0.00  0.00     0.178 HD
ATOM     21  H           0     136.138 132.413 141.969  0.00  0.00     0.180 HD
ENDROOT
BRANCH   6  22
ATOM     22  C           0     135.839 132.709 147.333  0.00  0.00     0.208 C 
BRANCH  22  23
ATOM     23  O           0     135.894 132.106 148.652  0.00  0.00    -0.302 OA
BRANCH  23  24
ATOM     24  C           0     134.807 131.495 149.159  0.00  0.00     0.362 C 
ATOM     25  N           0     134.883 130.213 149.569  0.00  0.00    -0.337 N 
ATOM     26  C           0     133.701 129.548 150.121  0.00  0.00     0.154 C 
ATOM     27  C           0     136.149 129.484 149.462  0.00  0.00     0.154 C 
ATOM     28  O           0     133.756 132.099 149.248  0.00  0.00    -0.238 OA
ENDBRANCH  23  24
ENDBRANCH  22  23
ENDBRANCH   6  22
BRANCH  18  29
ATOM     29  O           0     135.446 134.875 142.992  0.00  0.00    -0.362 OA
ATOM     30  H           0     134.780 134.216 142.751  0.00  0.00     0.213 HD
ENDBRANCH  18  29
BRANCH  18  31
ATOM     31  O           0     135.779 134.901 145.316  0.00  0.00    -0.362 OA
ATOM     32  H           0     135.218 135.656 145.098  0.00  0.00     0.213 HD
ENDBRANCH  18  31
TORSDOF 5
ENDMDL
MODEL 7
REMARK VINA RESULT:      -6.7     11.195     12.783
REMARK  5 active torsions:
REMARK  status: ('A' for Active; 'I' for Inactive)
REMARK    1  A    between atoms: C_6  and  C_7 
REMARK    2  A    between atoms: C_7  and  O_8 
REMARK    3  A    between atoms: O_8  and  C_9 
REMARK       I    between atoms: C_9  and  N_10 
REMARK    4  A    between atoms: C_25  and  O_26 
REMARK    5  A    between atoms: C_25  and  O_27 
ROOT
ATOM      1  N           0     134.150 133.456 132.120  0.00  0.00    -0.235 N 
ATOM      2  H           0     134.128 132.800 131.406  0.00  0.00     0.174 HD
ATOM      3  H           0     134.995 133.848 132.394  0.00  0.00     0.174 HD
ATOM      4  C           0     133.044 133.818 132.708  0.00  0.00     0.672 C 
ATOM      5  N           0     131.814 133.294 132.349  0.00  0.00    -0.218 N 
ATOM      6  C           0     130.769 133.227 133.366  0.00  0.00     0.151 C 
ATOM      7  C           0     130.557 134.550 134.076  0.00  0.00     0.180 C 
ATOM      8  N           0     129.789 135.456 133.195  0.00  0.00    -0.216 N 
ATOM      9  C           0     130.319 136.716 133.334  0.00  0.00     0.670 C 
ATOM     10  N           0     129.694 137.813 133.007  0.00  0.00    -0.235 N 
ATOM     11  H           0     128.797 137.769 132.641  0.00  0.00     0.174 HD
ATOM     12  H           0     130.126 138.672 133.132  0.00  0.00     0.174 HD
ATOM     13  C           0     131.840 135.316 134.358  0.00  0.00     0.217 C 
ATOM     14  N           0     131.587 136.677 133.859  0.00  0.00    -0.191 N 
ATOM     15  N           0     133.025 134.738 133.724  0.00  0.00    -0.183 N 
ATOM     16  C           0     134.173 135.310 134.449  0.00  0.00     0.150 C 
ATOM     17  C           0     133.711 135.355 135.925  0.00  0.00     0.093 C 
ATOM     18  C           0     132.162 135.362 135.861  0.00  0.00     0.209 C 
ATOM     19  H           0     131.651 132.981 131.445  0.00  0.00     0.178 HD
ATOM     20  H           0     129.047 135.207 132.623  0.00  0.00     0.178 HD
ATOM     21  H           0     132.208 137.421 133.897  0.00  0.00     0.180 HD
ENDROOT
BRANCH   6  22
ATOM     22  C           0     131.155 132.169 134.401  0.00  0.00     0.208 C 
BRANCH  22  23
ATOM     23  O           0     131.517 130.938 133.723  0.00  0.00    -0.302 OA
BRANCH  23  24
ATOM     24  C           0     132.740 130.404 133.906  0.00  0.00     0.362 C 
ATOM     25  N           0     133.401 129.861 132.864  0.00  0.00    -0.337 N 
ATOM     26  C           0     134.731 129.280 133.062  0.00  0.00     0.154 C 
ATOM     27  C           0     132.789 129.850 131.534  0.00  0.00     0.154 C 
ATOM     28  O           0     133.248 130.413 135.009  0.00  0.00    -0.238 OA
ENDBRANCH  23  24
ENDBRANCH  22  23
ENDBRANCH   6  22
BRANCH  18  29
ATOM     29  O           0     131.644 136.556 136.451  0.00  0.00    -0.362 OA
ATOM     30  H           0     131.916 137.289 135.882  0.00  0.00     0.213 HD
ENDBRANCH  18  29
BRANCH  18  31
ATOM     31  O           0     131.632 134.209 136.519  0.00  0.00    -0.362 OA
ATOM     32  H           0     130.921 133.871 135.959  0.00  0.00     0.213 HD
ENDBRANCH  18  31
TORSDOF 5
ENDMDL
MODEL 8
REMARK VINA RESULT:      -6.7      2.281      3.556
REMARK  5 active torsions:
REMARK  status: ('A' for Active; 'I' for Inactive)
REMARK    1  A    between atoms: C_6  and  C_7 
REMARK    2  A    between atoms: C_7  and  O_8 
REMARK    3  A    between atoms: O_8  and  C_9 
REMARK       I    between atoms: C_9  and  N_10 
REMARK    4  A    between atoms: C_25  and  O_26 
REMARK    5  A    between atoms: C_25  and  O_27 
ROOT
ATOM      1  N           0     133.830 128.666 146.960  0.00  0.00    -0.235 N 
ATOM      2  H           0     133.418 128.160 146.242  0.00  0.00     0.174 HD
ATOM      3  H           0     133.526 128.548 147.874  0.00  0.00     0.174 HD
ATOM      4  C           0     134.795 129.502 146.698  0.00  0.00     0.672 C 
ATOM      5  N           0     135.268 129.701 145.412  0.00  0.00    -0.218 N 
ATOM      6  C           0     135.844 131.000 145.081  0.00  0.00     0.151 C 
ATOM      7  C           0     136.903 131.441 146.072  0.00  0.00     0.180 C 
ATOM      8  N           0     138.155 130.700 145.807  0.00  0.00    -0.216 N 
ATOM      9  C           0     138.712 130.380 147.022  0.00  0.00     0.670 C 
ATOM     10  N           0     139.964 130.058 147.191  0.00  0.00    -0.235 N 
ATOM     11  H           0     140.565 130.035 146.430  0.00  0.00     0.174 HD
ATOM     12  H           0     140.294 129.843 148.078  0.00  0.00     0.174 HD
ATOM     13  C           0     136.578 131.103 147.519  0.00  0.00     0.217 C 
ATOM     14  N           0     137.787 130.441 148.035  0.00  0.00    -0.191 N 
ATOM     15  N           0     135.404 130.244 147.676  0.00  0.00    -0.183 N 
ATOM     16  C           0     134.993 130.399 149.083  0.00  0.00     0.150 C 
ATOM     17  C           0     135.223 131.899 149.386  0.00  0.00     0.093 C 
ATOM     18  C           0     136.277 132.362 148.349  0.00  0.00     0.209 C 
ATOM     19  H           0     135.218 128.994 144.748  0.00  0.00     0.178 HD
ATOM     20  H           0     138.517 130.480 144.935  0.00  0.00     0.178 HD
ATOM     21  H           0     137.912 130.107 148.937  0.00  0.00     0.180 HD
ENDROOT
BRANCH   6  22
ATOM     22  C           0     134.727 132.045 145.058  0.00  0.00     0.208 C 
BRANCH  22  23
ATOM     23  O           0     134.829 132.836 143.845  0.00  0.00    -0.302 OA
BRANCH  23  24
ATOM     24  C           0     134.937 134.176 143.922  0.00  0.00     0.362 C 
ATOM     25  N           0     134.462 134.949 142.926  0.00  0.00    -0.337 N 
ATOM     26  C           0     134.580 136.407 143.009  0.00  0.00     0.154 C 
ATOM     27  C           0     133.829 134.332 141.758  0.00  0.00     0.154 C 
ATOM     28  O           0     135.462 134.688 144.890  0.00  0.00    -0.238 OA
ENDBRANCH  23  24
ENDBRANCH  22  23
ENDBRANCH   6  22
BRANCH  18  29
ATOM     29  O           0     137.458 132.823 149.010  0.00  0.00    -0.362 OA
ATOM     30  H           0     137.294 133.742 149.264  0.00  0.00     0.213 HD
ENDBRANCH  18  29
BRANCH  18  31
ATOM     31  O           0     135.737 133.390 147.516  0.00  0.00    -0.362 OA
ATOM     32  H           0     136.165 133.304 146.654  0.00  0.00     0.213 HD
ENDBRANCH  18  31
TORSDOF 5
ENDMDL
MODEL 9
REMARK VINA RESULT:      -6.7      2.050      3.141
REMARK  5 active torsions:
REMARK  status: ('A' for Active; 'I' for Inactive)
REMARK    1  A    between atoms: C_6  and  C_7 
REMARK    2  A    between atoms: C_7  and  O_8 
REMARK    3  A    between atoms: O_8  and  C_9 
REMARK       I    between atoms: C_9  and  N_10 
REMARK    4  A    between atoms: C_25  and  O_26 
REMARK    5  A    between atoms: C_25  and  O_27 
ROOT
ATOM      1  N           0     134.789 130.295 144.786  0.00  0.00    -0.235 N 
ATOM      2  H           0     134.440 130.031 143.921  0.00  0.00     0.174 HD
ATOM      3  H           0     134.488 129.843 145.591  0.00  0.00     0.174 HD
ATOM      4  C           0     135.668 131.255 144.869  0.00  0.00     0.672 C 
ATOM      5  N           0     136.133 131.926 143.751  0.00  0.00    -0.218 N 
ATOM      6  C           0     136.578 133.307 143.910  0.00  0.00     0.151 C 
ATOM      7  C           0     137.574 133.476 145.040  0.00  0.00     0.180 C 
ATOM      8  N           0     138.899 132.989 144.596  0.00  0.00    -0.216 N 
ATOM      9  C           0     139.470 132.324 145.653  0.00  0.00     0.670 C 
ATOM     10  N           0     140.747 132.081 145.760  0.00  0.00    -0.235 N 
ATOM     11  H           0     141.356 132.375 145.066  0.00  0.00     0.174 HD
ATOM     12  H           0     141.086 131.605 146.534  0.00  0.00     0.174 HD
ATOM     13  C           0     137.268 132.633 146.268  0.00  0.00     0.217 C 
ATOM     14  N           0     138.532 131.948 146.583  0.00  0.00    -0.191 N 
ATOM     15  N           0     136.186 131.669 146.069  0.00  0.00    -0.183 N 
ATOM     16  C           0     135.745 131.292 147.423  0.00  0.00     0.150 C 
ATOM     17  C           0     135.817 132.611 148.230  0.00  0.00     0.093 C 
ATOM     18  C           0     136.831 133.497 147.463  0.00  0.00     0.209 C 
ATOM     19  H           0     136.164 131.489 142.885  0.00  0.00     0.178 HD
ATOM     20  H           0     139.291 133.117 143.719  0.00  0.00     0.178 HD
ATOM     21  H           0     138.680 131.338 147.322  0.00  0.00     0.180 HD
ENDROOT
BRANCH   6  22
ATOM     22  C           0     135.360 134.189 144.192  0.00  0.00     0.208 C 
BRANCH  22  23
ATOM     23  O           0     134.221 133.697 143.438  0.00  0.00    -0.302 OA
BRANCH  23  24
ATOM     24  C           0     133.857 134.307 142.294  0.00  0.00     0.362 C 
ATOM     25  N           0     133.344 133.583 141.278  0.00  0.00    -0.337 N 
ATOM     26  C           0     132.948 134.246 140.033  0.00  0.00     0.154 C 
ATOM     27  C           0     133.184 132.134 141.419  0.00  0.00     0.154 C 
ATOM     28  O           0     133.989 135.508 142.177  0.00  0.00    -0.238 OA
ENDBRANCH  23  24
ENDBRANCH  22  23
ENDBRANCH   6  22
BRANCH  18  29
ATOM     29  O           0     137.950 133.809 148.295  0.00  0.00    -0.362 OA
ATOM     30  H           0     137.931 133.185 149.034  0.00  0.00     0.213 HD
ENDBRANCH  18  29
BRANCH  18  31
ATOM     31  O           0     136.198 134.694 147.005  0.00  0.00    -0.362 OA
ATOM     32  H           0     136.808 135.421 147.191  0.00  0.00     0.213 HD
ENDBRANCH  18  31
TORSDOF 5
ENDMDL
