# created with PyMOL 2.3.4
@<TRIPOS>MOLECULE
ligand_out_0001
32 34 1                 
SMALL
USER_CHARGES
@<TRIPOS>ATOM
1	   N	134.994	136.756	143.166	N.3	1	UNK0	-0.235	
2	   N	133.757	134.762	143.009	N.3	1	UNK0	-0.218	
3	   N	134.067	132.149	144.613	N.3	1	UNK0	-0.215	
4	   N	134.822	131.613	146.790	N.3	1	UNK0	-0.235	
5	   N	136.060	132.985	145.316	N.3	1	UNK0	-0.187	
6	   N	136.011	134.694	143.603	N.3	1	UNK0	-0.183	
7	   N	133.561	136.044	139.913	N.pl3	1	UNK0	-0.346	
8	   C	134.927	135.458	143.259	C.3	1	UNK0	0.672	
9	   C	133.859	133.389	142.520	C.3	1	UNK0	0.151	
10	   C	134.775	132.532	143.372	C.3	1	UNK0	0.180	
11	   C	134.974	132.212	145.643	C.3	1	UNK0	0.672	
12	   C	136.017	133.254	143.869	C.3	1	UNK0	0.219	
13	   C	137.088	133.458	146.246	C.3	1	UNK0	0.171	
14	   C	137.417	135.120	143.728	C.3	1	UNK0	0.150	
15	   C	138.226	133.958	143.104	C.3	1	UNK0	0.093	
16	   C	137.297	132.721	143.201	C.3	1	UNK0	0.210	
17	   C	134.398	133.414	141.089	C.2	1	UNK0	0.208	
18	   C	133.418	134.817	139.373	C.2	1	UNK0	0.358	
19	   O	133.321	133.737	140.171	O.2	1	UNK0	-0.302	
20	   O	133.375	134.685	138.165	O.co2	1	UNK0	-0.239	
21	   O	137.901	131.707	144.006	O.2	1	UNK0	-0.362	
22	   O	137.003	132.216	141.898	O.2	1	UNK0	-0.362	
23	   H	134.209	137.266	142.916	 H	1	UNK0	0.174	
24	   H	135.830	137.213	143.352	 H	1	UNK0	0.174	
25	   H	134.028	131.080	146.957	 H	1	UNK0	0.174	
26	   H	135.501	131.699	147.477	 H	1	UNK0	0.174	
27	   H	132.891	135.175	143.157	 H	1	UNK0	0.178	
28	   H	133.134	131.899	144.685	 H	1	UNK0	0.178	
29	   H	133.595	136.148	140.876	 H	1	UNK0	0.161	
30	   H	133.631	136.822	139.337	 H	1	UNK0	0.161	
31	   H	137.835	132.003	144.924	 H	1	UNK0	0.213	
32	   H	136.204	131.677	141.980	 H	1	UNK0	0.213	
@<TRIPOS>BOND
1 1 8 1
2 1 23 1
3 1 24 1
4 2 9 1
5 2 27 1
6 3 11 1
7 3 28 1
8 4 25 1
9 4 26 1
10 5 13 1
11 6 14 1
12 7 29 1
13 7 30 1
14 2 8 1
15 6 8 1
16 9 10 1
17 9 17 1
18 3 10 1
19 10 12 1
20 4 11 1
21 5 11 1
22 5 12 1
23 6 12 1
24 12 16 1
25 14 15 1
26 15 16 1
27 16 21 2
28 16 22 2
29 17 19 2
30 7 18 1
31 18 20 2
32 18 19 2
33 21 31 1
34 22 32 1
@<TRIPOS>SUBSTRUCTURE
1	UNK0	1	GROUP	1 ****	UNK
