# created with PyMOL 2.3.4
@<TRIPOS>MOLECULE
ligand_out_0001
37 39 1                 
SMALL
USER_CHARGES
@<TRIPOS>ATOM
1	   N	137.331	132.672	142.430	N.3	1	UNK0	-0.235	
2	   N	135.449	133.558	141.330	N.3	1	UNK0	-0.218	
3	   N	134.021	136.251	141.783	N.3	1	UNK0	-0.216	
4	   N	134.701	138.391	142.528	N.3	1	UNK0	-0.235	
5	   N	135.229	136.406	143.701	N.3	1	UNK0	-0.191	
6	   N	135.840	134.069	143.572	N.3	1	UNK0	-0.180	
7	   N	131.354	133.128	139.390	N.pl3	1	UNK0	-0.346	
8	   C	136.253	133.406	142.446	C.3	1	UNK0	0.672	
9	   C	134.027	133.823	141.533	C.3	1	UNK0	0.151	
10	   C	133.777	134.974	142.486	C.3	1	UNK0	0.180	
11	   C	134.653	137.095	142.663	C.3	1	UNK0	0.670	
12	   C	134.732	135.020	143.669	C.3	1	UNK0	0.220	
13	   C	136.364	133.940	144.943	C.3	1	UNK0	0.183	
14	   C	135.104	133.969	145.840	C.2	1	UNK0	0.230	
15	   C	134.023	134.688	144.993	C.3	1	UNK0	0.238	
16	   C	133.367	132.563	142.097	C.2	1	UNK0	0.208	
17	   C	131.411	132.718	140.673	C.2	1	UNK0	0.358	
18	   O	132.468	132.002	141.104	O.2	1	UNK0	-0.302	
19	   O	130.511	132.994	141.440	O.co2	1	UNK0	-0.239	
20	   O	133.593	135.884	145.648	O.2	1	UNK0	-0.360	
21	   O	132.914	133.820	144.759	O.2	1	UNK0	-0.360	
22	   O	134.688	132.639	146.156	O.2	1	UNK0	-0.244	
23	   O	134.776	131.115	147.988	O.3	1	UNK0	-0.572	
24	   O	135.819	133.289	148.151	O.3	1	UNK0	-0.572	
25	   O	133.409	133.105	148.113	O.3	1	UNK0	-0.572	
26	   S	134.672	132.532	147.675	S.3	1	UNK0	0.252	
27	   H	137.592	132.213	141.617	 H	1	UNK0	0.174	
28	   H	137.874	132.590	143.229	 H	1	UNK0	0.174	
29	   H	134.272	138.815	141.769	 H	1	UNK0	0.174	
30	   H	135.165	138.930	143.188	 H	1	UNK0	0.174	
31	   H	135.821	133.493	140.437	 H	1	UNK0	0.178	
32	   H	133.780	136.455	140.866	 H	1	UNK0	0.178	
33	   H	135.854	136.770	144.347	 H	1	UNK0	0.180	
34	   H	132.073	132.907	138.778	 H	1	UNK0	0.161	
35	   H	130.594	133.644	139.080	 H	1	UNK0	0.161	
36	   H	132.651	135.776	145.837	 H	1	UNK0	0.213	
37	   H	132.875	133.665	143.805	 H	1	UNK0	0.213	
@<TRIPOS>BOND
1 1 8 1
2 1 27 1
3 1 28 1
4 2 9 1
5 2 31 1
6 3 11 1
7 3 32 1
8 4 29 1
9 4 30 1
10 5 33 1
11 6 13 1
12 7 34 1
13 7 35 1
14 2 8 1
15 6 8 1
16 9 10 1
17 9 16 1
18 3 10 1
19 10 12 1
20 4 11 1
21 5 11 1
22 5 12 1
23 6 12 1
24 12 15 1
25 13 14 1
26 14 15 1
27 14 22 2
28 15 20 2
29 15 21 2
30 16 18 2
31 7 17 1
32 17 19 2
33 17 18 2
34 20 36 1
35 21 37 1
36 22 26 1
37 23 26 1
38 24 26 1
39 25 26 1
@<TRIPOS>SUBSTRUCTURE
1	UNK0	1	GROUP	1 ****	UNK
