MODEL 1
REMARK VINA RESULT:      -8.2      0.000      0.000
REMARK  5 active torsions:
REMARK  status: ('A' for Active; 'I' for Inactive)
REMARK    1  A    between atoms: C_6  and  C_7 
REMARK    2  A    between atoms: C_7  and  O_8 
REMARK    3  A    between atoms: O_8  and  C_9 
REMARK       I    between atoms: C_9  and  N_10 
REMARK    4  A    between atoms: C_23  and  O_24 
REMARK    5  A    between atoms: C_23  and  O_25 
ROOT
ATOM      1  N           0     137.602 134.979 142.932  0.00  0.00    -0.235 N 
ATOM      2  H           0     137.711 135.833 142.486  0.00  0.00     0.174 HD
ATOM      3  H           0     138.380 134.437 143.139  0.00  0.00     0.174 HD
ATOM      4  C           0     136.412 134.560 143.258  0.00  0.00     0.672 C 
ATOM      5  N           0     135.272 135.297 142.988  0.00  0.00    -0.218 N 
ATOM      6  C           0     134.016 134.581 142.785  0.00  0.00     0.151 C 
ATOM      7  C           0     133.719 133.596 143.900  0.00  0.00     0.180 C 
ATOM      8  N           0     133.228 134.335 145.082  0.00  0.00    -0.216 N 
ATOM      9  C           0     133.779 133.748 146.195  0.00  0.00     0.670 C 
ATOM     10  N           0     133.310 133.884 147.404  0.00  0.00    -0.235 N 
ATOM     11  H           0     132.521 134.428 147.559  0.00  0.00     0.174 HD
ATOM     12  H           0     133.748 133.440 148.146  0.00  0.00     0.174 HD
ATOM     13  C           0     134.940 132.852 144.414  0.00  0.00     0.217 C 
ATOM     14  N           0     134.885 133.000 145.878  0.00  0.00    -0.191 N 
ATOM     15  N           0     136.207 133.358 143.884  0.00  0.00    -0.183 N 
ATOM     16  C           0     137.185 132.280 144.115  0.00  0.00     0.150 C 
ATOM     17  C           0     136.394 130.978 143.836  0.00  0.00     0.093 C 
ATOM     18  C           0     134.906 131.361 144.038  0.00  0.00     0.209 C 
ATOM     19  H           0     135.307 136.265 142.936  0.00  0.00     0.178 HD
ATOM     20  H           0     132.626 135.095 145.075  0.00  0.00     0.178 HD
ATOM     21  H           0     135.521 132.630 146.510  0.00  0.00     0.180 HD
ENDROOT
BRANCH   6  22
ATOM     22  C           0     134.091 133.819 141.461  0.00  0.00     0.208 C 
BRANCH  22  23
ATOM     23  O           0     132.956 134.177 140.631  0.00  0.00    -0.302 OA
BRANCH  23  24
ATOM     24  C           0     133.141 134.912 139.518  0.00  0.00     0.358 C 
ATOM     25  N           0     133.537 136.197 139.617  0.00  0.00    -0.346 N 
ATOM     26  H           0     133.689 136.592 140.490  0.00  0.00     0.161 HD
ATOM     27  H           0     133.669 136.727 138.815  0.00  0.00     0.161 HD
ATOM     28  O           0     132.950 134.418 138.424  0.00  0.00    -0.239 OA
ENDBRANCH  23  24
ENDBRANCH  22  23
ENDBRANCH   6  22
BRANCH  18  29
ATOM     29  O           0     134.332 130.588 145.094  0.00  0.00    -0.362 OA
ATOM     30  H           0     135.017 130.487 145.769  0.00  0.00     0.213 HD
ENDBRANCH  18  29
BRANCH  18  31
ATOM     31  O           0     134.174 131.171 142.825  0.00  0.00    -0.362 OA
ATOM     32  H           0     133.816 130.273 142.852  0.00  0.00     0.213 HD
ENDBRANCH  18  31
TORSDOF 5
ENDMDL
MODEL 2
REMARK VINA RESULT:      -8.2      1.564      1.937
REMARK  5 active torsions:
REMARK  status: ('A' for Active; 'I' for Inactive)
REMARK    1  A    between atoms: C_6  and  C_7 
REMARK    2  A    between atoms: C_7  and  O_8 
REMARK    3  A    between atoms: O_8  and  C_9 
REMARK       I    between atoms: C_9  and  N_10 
REMARK    4  A    between atoms: C_23  and  O_24 
REMARK    5  A    between atoms: C_23  and  O_25 
ROOT
ATOM      1  N           0     135.355 136.857 143.198  0.00  0.00    -0.235 N 
ATOM      2  H           0     134.626 137.465 142.999  0.00  0.00     0.174 HD
ATOM      3  H           0     136.262 137.195 143.269  0.00  0.00     0.174 HD
ATOM      4  C           0     135.116 135.588 143.373  0.00  0.00     0.672 C 
ATOM      5  N           0     133.840 135.059 143.286  0.00  0.00    -0.218 N 
ATOM      6  C           0     133.695 133.667 142.872  0.00  0.00     0.151 C 
ATOM      7  C           0     134.570 132.724 143.675  0.00  0.00     0.180 C 
ATOM      8  N           0     133.956 132.503 145.001  0.00  0.00    -0.216 N 
ATOM      9  C           0     134.969 132.478 145.928  0.00  0.00     0.670 C 
ATOM     10  N           0     134.862 131.958 147.118  0.00  0.00    -0.235 N 
ATOM     11  H           0     134.024 131.554 147.396  0.00  0.00     0.174 HD
ATOM     12  H           0     135.618 131.974 147.725  0.00  0.00     0.174 HD
ATOM     13  C           0     135.948 133.278 143.998  0.00  0.00     0.217 C 
ATOM     14  N           0     136.111 133.070 145.447  0.00  0.00    -0.191 N 
ATOM     15  N           0     136.114 134.690 143.650  0.00  0.00    -0.183 N 
ATOM     16  C           0     137.570 134.912 143.606  0.00  0.00     0.150 C 
ATOM     17  C           0     138.137 133.619 142.972  0.00  0.00     0.093 C 
ATOM     18  C           0     137.059 132.536 143.236  0.00  0.00     0.209 C 
ATOM     19  H           0     133.063 135.599 143.496  0.00  0.00     0.178 HD
ATOM     20  H           0     133.010 132.394 145.185  0.00  0.00     0.178 HD
ATOM     21  H           0     136.891 133.307 145.970  0.00  0.00     0.180 HD
ENDROOT
BRANCH   6  22
ATOM     22  C           0     134.072 133.550 141.394  0.00  0.00     0.208 C 
BRANCH  22  23
ATOM     23  O           0     132.970 134.019 140.574  0.00  0.00    -0.302 OA
BRANCH  23  24
ATOM     24  C           0     133.202 134.868 139.555  0.00  0.00     0.358 C 
ATOM     25  N           0     133.561 136.143 139.808  0.00  0.00    -0.346 N 
ATOM     26  H           0     133.652 136.449 140.724  0.00  0.00     0.161 HD
ATOM     27  H           0     133.728 136.755 139.074  0.00  0.00     0.161 HD
ATOM     28  O           0     133.089 134.485 138.407  0.00  0.00    -0.239 OA
ENDBRANCH  23  24
ENDBRANCH  22  23
ENDBRANCH   6  22
BRANCH  18  29
ATOM     29  O           0     137.599 131.481 144.034  0.00  0.00    -0.362 OA
ATOM     30  H           0     137.454 130.659 143.546  0.00  0.00     0.213 HD
ENDBRANCH  18  29
BRANCH  18  31
ATOM     31  O           0     136.556 132.022 142.001  0.00  0.00    -0.362 OA
ATOM     32  H           0     137.190 132.274 141.315  0.00  0.00     0.213 HD
ENDBRANCH  18  31
TORSDOF 5
ENDMDL
MODEL 3
REMARK VINA RESULT:      -7.6      2.412      3.429
REMARK  5 active torsions:
REMARK  status: ('A' for Active; 'I' for Inactive)
REMARK    1  A    between atoms: C_6  and  C_7 
REMARK    2  A    between atoms: C_7  and  O_8 
REMARK    3  A    between atoms: O_8  and  C_9 
REMARK       I    between atoms: C_9  and  N_10 
REMARK    4  A    between atoms: C_23  and  O_24 
REMARK    5  A    between atoms: C_23  and  O_25 
ROOT
ATOM      1  N           0     137.358 132.667 142.500  0.00  0.00    -0.235 N 
ATOM      2  H           0     137.641 132.208 141.694  0.00  0.00     0.174 HD
ATOM      3  H           0     137.882 132.587 143.313  0.00  0.00     0.174 HD
ATOM      4  C           0     136.277 133.395 142.491  0.00  0.00     0.672 C 
ATOM      5  N           0     135.498 133.544 141.356  0.00  0.00    -0.218 N 
ATOM      6  C           0     134.071 133.802 141.525  0.00  0.00     0.151 C 
ATOM      7  C           0     133.794 134.953 142.473  0.00  0.00     0.180 C 
ATOM      8  N           0     134.049 136.230 141.774  0.00  0.00    -0.216 N 
ATOM      9  C           0     134.657 137.078 142.668  0.00  0.00     0.670 C 
ATOM     10  N           0     134.702 138.373 142.535  0.00  0.00    -0.235 N 
ATOM     11  H           0     134.289 138.796 141.765  0.00  0.00     0.174 HD
ATOM     12  H           0     135.148 138.914 143.205  0.00  0.00     0.174 HD
ATOM     13  C           0     134.720 135.003 143.677  0.00  0.00     0.217 C 
ATOM     14  N           0     135.210 136.391 143.720  0.00  0.00    -0.191 N 
ATOM     15  N           0     135.833 134.057 143.606  0.00  0.00    -0.183 N 
ATOM     16  C           0     136.327 133.930 144.990  0.00  0.00     0.150 C 
ATOM     17  C           0     135.045 133.955 145.857  0.00  0.00     0.093 C 
ATOM     18  C           0     133.982 134.669 144.985  0.00  0.00     0.209 C 
ATOM     19  H           0     135.891 133.480 140.472  0.00  0.00     0.178 HD
ATOM     20  H           0     133.828 136.434 140.851  0.00  0.00     0.178 HD
ATOM     21  H           0     135.818 136.758 144.380  0.00  0.00     0.180 HD
ENDROOT
BRANCH   6  22
ATOM     22  C           0     133.403 132.540 142.074  0.00  0.00     0.208 C 
BRANCH  22  23
ATOM     23  O           0     132.489 132.005 141.081  0.00  0.00    -0.302 OA
BRANCH  23  24
ATOM     24  C           0     131.428 132.732 140.681  0.00  0.00     0.358 C 
ATOM     25  N           0     131.383 133.223 139.427  0.00  0.00    -0.346 N 
ATOM     26  H           0     132.114 133.053 138.812  0.00  0.00     0.161 HD
ATOM     27  H           0     130.619 133.747 139.139  0.00  0.00     0.161 HD
ATOM     28  O           0     130.513 132.944 141.451  0.00  0.00    -0.239 OA
ENDBRANCH  23  24
ENDBRANCH  22  23
ENDBRANCH   6  22
BRANCH  18  29
ATOM     29  O           0     133.531 135.863 145.628  0.00  0.00    -0.362 OA
ATOM     30  H           0     132.565 135.831 145.631  0.00  0.00     0.213 HD
ENDBRANCH  18  29
BRANCH  18  31
ATOM     31  O           0     132.882 133.795 144.725  0.00  0.00    -0.362 OA
ATOM     32  H           0     132.778 133.236 145.507  0.00  0.00     0.213 HD
ENDBRANCH  18  31
TORSDOF 5
ENDMDL
MODEL 4
REMARK VINA RESULT:      -7.0      2.718      5.251
REMARK  5 active torsions:
REMARK  status: ('A' for Active; 'I' for Inactive)
REMARK    1  A    between atoms: C_6  and  C_7 
REMARK    2  A    between atoms: C_7  and  O_8 
REMARK    3  A    between atoms: O_8  and  C_9 
REMARK       I    between atoms: C_9  and  N_10 
REMARK    4  A    between atoms: C_23  and  O_24 
REMARK    5  A    between atoms: C_23  and  O_25 
ROOT
ATOM      1  N           0     137.655 134.552 142.600  0.00  0.00    -0.235 N 
ATOM      2  H           0     138.472 134.225 142.194  0.00  0.00     0.174 HD
ATOM      3  H           0     137.566 135.493 142.821  0.00  0.00     0.174 HD
ATOM      4  C           0     136.674 133.730 142.845  0.00  0.00     0.672 C 
ATOM      5  N           0     136.750 132.381 142.544  0.00  0.00    -0.218 N 
ATOM      6  C           0     135.973 131.446 143.353  0.00  0.00     0.151 C 
ATOM      7  C           0     134.515 131.847 143.470  0.00  0.00     0.180 C 
ATOM      8  N           0     133.815 131.506 142.214  0.00  0.00    -0.216 N 
ATOM      9  C           0     132.939 132.527 141.937  0.00  0.00     0.670 C 
ATOM     10  N           0     131.917 132.418 141.135  0.00  0.00    -0.235 N 
ATOM     11  H           0     131.737 131.575 140.691  0.00  0.00     0.174 HD
ATOM     12  H           0     131.336 133.180 140.984  0.00  0.00     0.174 HD
ATOM     13  C           0     134.292 133.344 143.618  0.00  0.00     0.217 C 
ATOM     14  N           0     133.272 133.676 142.609  0.00  0.00    -0.191 N 
ATOM     15  N           0     135.502 134.143 143.423  0.00  0.00    -0.183 N 
ATOM     16  C           0     135.205 135.454 144.030  0.00  0.00     0.150 C 
ATOM     17  C           0     134.386 135.112 145.298  0.00  0.00     0.093 C 
ATOM     18  C           0     133.779 133.713 145.021  0.00  0.00     0.209 C 
ATOM     19  H           0     137.305 132.065 141.815  0.00  0.00     0.178 HD
ATOM     20  H           0     133.949 130.706 141.682  0.00  0.00     0.178 HD
ATOM     21  H           0     132.898 134.556 142.449  0.00  0.00     0.180 HD
ENDROOT
BRANCH   6  22
ATOM     22  C           0     136.581 131.384 144.756  0.00  0.00     0.208 C 
BRANCH  22  23
ATOM     23  O           0     135.795 130.490 145.586  0.00  0.00    -0.302 OA
BRANCH  23  24
ATOM     24  C           0     136.218 130.173 146.824  0.00  0.00     0.358 C 
ATOM     25  N           0     136.870 129.013 147.038  0.00  0.00    -0.346 N 
ATOM     26  H           0     137.034 128.405 146.299  0.00  0.00     0.161 HD
ATOM     27  H           0     137.174 128.784 147.930  0.00  0.00     0.161 HD
ATOM     28  O           0     136.013 130.934 147.749  0.00  0.00    -0.239 OA
ENDBRANCH  23  24
ENDBRANCH  22  23
ENDBRANCH   6  22
BRANCH  18  29
ATOM     29  O           0     132.352 133.778 145.034  0.00  0.00    -0.362 OA
ATOM     30  H           0     132.064 133.400 145.877  0.00  0.00     0.213 HD
ENDBRANCH  18  29
BRANCH  18  31
ATOM     31  O           0     134.246 132.767 145.985  0.00  0.00    -0.362 OA
ATOM     32  H           0     133.903 131.903 145.718  0.00  0.00     0.213 HD
ENDBRANCH  18  31
TORSDOF 5
ENDMDL
MODEL 5
REMARK VINA RESULT:      -7.0      2.534      3.727
REMARK  5 active torsions:
REMARK  status: ('A' for Active; 'I' for Inactive)
REMARK    1  A    between atoms: C_6  and  C_7 
REMARK    2  A    between atoms: C_7  and  O_8 
REMARK    3  A    between atoms: O_8  and  C_9 
REMARK       I    between atoms: C_9  and  N_10 
REMARK    4  A    between atoms: C_23  and  O_24 
REMARK    5  A    between atoms: C_23  and  O_25 
ROOT
ATOM      1  N           0     134.590 134.761 147.166  0.00  0.00    -0.235 N 
ATOM      2  H           0     133.759 135.257 147.113  0.00  0.00     0.174 HD
ATOM      3  H           0     135.266 135.015 147.815  0.00  0.00     0.174 HD
ATOM      4  C           0     134.800 133.751 146.369  0.00  0.00     0.672 C 
ATOM      5  N           0     133.866 133.347 145.431  0.00  0.00    -0.218 N 
ATOM      6  C           0     134.345 132.692 144.217  0.00  0.00     0.151 C 
ATOM      7  C           0     135.287 131.540 144.508  0.00  0.00     0.180 C 
ATOM      8  N           0     134.502 130.370 144.956  0.00  0.00    -0.216 N 
ATOM      9  C           0     135.203 129.764 145.969  0.00  0.00     0.670 C 
ATOM     10  N           0     135.016 128.534 146.356  0.00  0.00    -0.235 N 
ATOM     11  H           0     134.345 127.986 145.920  0.00  0.00     0.174 HD
ATOM     12  H           0     135.547 128.166 147.080  0.00  0.00     0.174 HD
ATOM     13  C           0     136.248 131.798 145.658  0.00  0.00     0.217 C 
ATOM     14  N           0     136.127 130.614 146.525  0.00  0.00    -0.191 N 
ATOM     15  N           0     135.961 133.024 146.403  0.00  0.00    -0.183 N 
ATOM     16  C           0     137.201 133.331 147.140  0.00  0.00     0.150 C 
ATOM     17  C           0     138.335 132.963 146.152  0.00  0.00     0.093 C 
ATOM     18  C           0     137.700 131.944 145.172  0.00  0.00     0.209 C 
ATOM     19  H           0     132.919 133.495 145.577  0.00  0.00     0.178 HD
ATOM     20  H           0     133.647 130.082 144.599  0.00  0.00     0.178 HD
ATOM     21  H           0     136.619 130.460 147.346  0.00  0.00     0.180 HD
ENDROOT
BRANCH   6  22
ATOM     22  C           0     135.076 133.722 143.356  0.00  0.00     0.208 C 
BRANCH  22  23
ATOM     23  O           0     134.119 134.669 142.814  0.00  0.00    -0.302 OA
BRANCH  23  24
ATOM     24  C           0     134.081 135.931 143.283  0.00  0.00     0.358 C 
ATOM     25  N           0     134.486 136.952 142.501  0.00  0.00    -0.346 N 
ATOM     26  H           0     134.805 136.778 141.602  0.00  0.00     0.161 HD
ATOM     27  H           0     134.459 137.861 142.839  0.00  0.00     0.161 HD
ATOM     28  O           0     133.681 136.149 144.409  0.00  0.00    -0.239 OA
ENDBRANCH  23  24
ENDBRANCH  22  23
ENDBRANCH   6  22
BRANCH  18  29
ATOM     29  O           0     138.384 130.692 145.245  0.00  0.00    -0.362 OA
ATOM     30  H           0     138.379 130.319 144.352  0.00  0.00     0.213 HD
ENDBRANCH  18  29
BRANCH  18  31
ATOM     31  O           0     137.728 132.453 143.837  0.00  0.00    -0.362 OA
ATOM     32  H           0     138.344 133.199 143.835  0.00  0.00     0.213 HD
ENDBRANCH  18  31
TORSDOF 5
ENDMDL
MODEL 6
REMARK VINA RESULT:      -6.8      5.333     10.043
REMARK  5 active torsions:
REMARK  status: ('A' for Active; 'I' for Inactive)
REMARK    1  A    between atoms: C_6  and  C_7 
REMARK    2  A    between atoms: C_7  and  O_8 
REMARK    3  A    between atoms: O_8  and  C_9 
REMARK       I    between atoms: C_9  and  N_10 
REMARK    4  A    between atoms: C_23  and  O_24 
REMARK    5  A    between atoms: C_23  and  O_25 
ROOT
ATOM      1  N           0     131.434 132.144 134.969  0.00  0.00    -0.235 N 
ATOM      2  H           0     130.847 131.795 135.658  0.00  0.00     0.174 HD
ATOM      3  H           0     131.812 131.545 134.305  0.00  0.00     0.174 HD
ATOM      4  C           0     131.713 133.417 134.932  0.00  0.00     0.672 C 
ATOM      5  N           0     131.195 134.312 135.852  0.00  0.00    -0.218 N 
ATOM      6  C           0     131.969 135.510 136.163  0.00  0.00     0.151 C 
ATOM      7  C           0     132.397 136.267 134.921  0.00  0.00     0.180 C 
ATOM      8  N           0     131.242 137.023 134.391  0.00  0.00    -0.216 N 
ATOM      9  C           0     131.284 136.936 133.020  0.00  0.00     0.670 C 
ATOM     10  N           0     130.663 137.751 132.215  0.00  0.00    -0.235 N 
ATOM     11  H           0     130.130 138.476 132.577  0.00  0.00     0.174 HD
ATOM     12  H           0     130.736 137.633 131.255  0.00  0.00     0.174 HD
ATOM     13  C           0     132.814 135.376 133.762  0.00  0.00     0.217 C 
ATOM     14  N           0     132.061 135.884 132.603  0.00  0.00    -0.191 N 
ATOM     15  N           0     132.541 133.955 133.982  0.00  0.00    -0.183 N 
ATOM     16  C           0     133.388 133.240 133.010  0.00  0.00     0.150 C 
ATOM     17  C           0     134.709 134.047 132.986  0.00  0.00     0.093 C 
ATOM     18  C           0     134.324 135.464 133.483  0.00  0.00     0.209 C 
ATOM     19  H           0     130.340 134.147 136.279  0.00  0.00     0.178 HD
ATOM     20  H           0     130.576 137.495 134.914  0.00  0.00     0.178 HD
ATOM     21  H           0     132.107 135.536 131.699  0.00  0.00     0.180 HD
ENDROOT
BRANCH   6  22
ATOM     22  C           0     133.218 135.101 136.946  0.00  0.00     0.208 C 
BRANCH  22  23
ATOM     23  O           0     132.829 134.327 138.110  0.00  0.00    -0.302 OA
BRANCH  23  24
ATOM     24  C           0     133.037 134.818 139.347  0.00  0.00     0.358 C 
ATOM     25  N           0     133.501 136.074 139.503  0.00  0.00    -0.346 N 
ATOM     26  H           0     133.685 136.624 138.726  0.00  0.00     0.161 HD
ATOM     27  H           0     133.651 136.428 140.394  0.00  0.00     0.161 HD
ATOM     28  O           0     132.806 134.129 140.320  0.00  0.00    -0.239 OA
ENDBRANCH  23  24
ENDBRANCH  22  23
ENDBRANCH   6  22
BRANCH  18  29
ATOM     29  O           0     134.593 136.436 132.472  0.00  0.00    -0.362 OA
ATOM     30  H           0     135.517 136.320 132.211  0.00  0.00     0.213 HD
ENDBRANCH  18  29
BRANCH  18  31
ATOM     31  O           0     135.033 135.781 134.683  0.00  0.00    -0.362 OA
ATOM     32  H           0     134.441 135.576 135.420  0.00  0.00     0.213 HD
ENDBRANCH  18  31
TORSDOF 5
ENDMDL
MODEL 7
REMARK VINA RESULT:      -6.7      2.774      4.415
REMARK  5 active torsions:
REMARK  status: ('A' for Active; 'I' for Inactive)
REMARK    1  A    between atoms: C_6  and  C_7 
REMARK    2  A    between atoms: C_7  and  O_8 
REMARK    3  A    between atoms: O_8  and  C_9 
REMARK       I    between atoms: C_9  and  N_10 
REMARK    4  A    between atoms: C_23  and  O_24 
REMARK    5  A    between atoms: C_23  and  O_25 
ROOT
ATOM      1  N           0     135.123 130.531 143.394  0.00  0.00    -0.235 N 
ATOM      2  H           0     135.560 129.695 143.617  0.00  0.00     0.174 HD
ATOM      3  H           0     134.729 130.654 142.516  0.00  0.00     0.174 HD
ATOM      4  C           0     135.062 131.490 144.276  0.00  0.00     0.672 C 
ATOM      5  N           0     135.604 131.362 145.543  0.00  0.00    -0.218 N 
ATOM      6  C           0     136.063 132.569 146.224  0.00  0.00     0.151 C 
ATOM      7  C           0     135.014 133.664 146.241  0.00  0.00     0.180 C 
ATOM      8  N           0     133.997 133.347 147.264  0.00  0.00    -0.216 N 
ATOM      9  C           0     132.770 133.691 146.750  0.00  0.00     0.670 C 
ATOM     10  N           0     131.704 133.894 147.471  0.00  0.00    -0.235 N 
ATOM     11  H           0     131.747 133.803 148.436  0.00  0.00     0.174 HD
ATOM     12  H           0     130.868 134.135 147.043  0.00  0.00     0.174 HD
ATOM     13  C           0     134.215 133.779 144.953  0.00  0.00     0.217 C 
ATOM     14  N           0     132.806 133.796 145.382  0.00  0.00    -0.191 N 
ATOM     15  N           0     134.461 132.692 144.006  0.00  0.00    -0.183 N 
ATOM     16  C           0     133.982 133.192 142.704  0.00  0.00     0.150 C 
ATOM     17  C           0     134.391 134.685 142.693  0.00  0.00     0.093 C 
ATOM     18  C           0     134.543 135.072 144.186  0.00  0.00     0.209 C 
ATOM     19  H           0     135.677 130.493 145.967  0.00  0.00     0.178 HD
ATOM     20  H           0     134.163 132.965 148.140  0.00  0.00     0.178 HD
ATOM     21  H           0     132.036 133.870 144.798  0.00  0.00     0.180 HD
ENDROOT
BRANCH   6  22
ATOM     22  C           0     137.312 133.093 145.512  0.00  0.00     0.208 C 
BRANCH  22  23
ATOM     23  O           0     137.321 132.622 144.140  0.00  0.00    -0.302 OA
BRANCH  23  24
ATOM     24  C           0     138.158 133.177 143.242  0.00  0.00     0.358 C 
ATOM     25  N           0     137.666 133.926 142.235  0.00  0.00    -0.346 N 
ATOM     26  H           0     136.708 134.065 142.157  0.00  0.00     0.161 HD
ATOM     27  H           0     138.268 134.325 141.588  0.00  0.00     0.161 HD
ATOM     28  O           0     139.356 133.004 143.341  0.00  0.00    -0.239 OA
ENDBRANCH  23  24
ENDBRANCH  22  23
ENDBRANCH   6  22
BRANCH  18  29
ATOM     29  O           0     133.620 136.108 144.527  0.00  0.00    -0.362 OA
ATOM     30  H           0     133.928 136.494 145.359  0.00  0.00     0.213 HD
ENDBRANCH  18  29
BRANCH  18  31
ATOM     31  O           0     135.883 135.486 144.460  0.00  0.00    -0.362 OA
ATOM     32  H           0     136.345 134.716 144.819  0.00  0.00     0.213 HD
ENDBRANCH  18  31
TORSDOF 5
ENDMDL
MODEL 8
REMARK VINA RESULT:      -6.5      2.962      5.570
REMARK  5 active torsions:
REMARK  status: ('A' for Active; 'I' for Inactive)
REMARK    1  A    between atoms: C_6  and  C_7 
REMARK    2  A    between atoms: C_7  and  O_8 
REMARK    3  A    between atoms: O_8  and  C_9 
REMARK       I    between atoms: C_9  and  N_10 
REMARK    4  A    between atoms: C_23  and  O_24 
REMARK    5  A    between atoms: C_23  and  O_25 
ROOT
ATOM      1  N           0     135.302 129.783 145.458  0.00  0.00    -0.235 N 
ATOM      2  H           0     135.668 129.242 146.174  0.00  0.00     0.174 HD
ATOM      3  H           0     134.745 129.372 144.777  0.00  0.00     0.174 HD
ATOM      4  C           0     135.552 131.061 145.411  0.00  0.00     0.672 C 
ATOM      5  N           0     136.336 131.694 146.361  0.00  0.00    -0.218 N 
ATOM      6  C           0     137.077 132.886 145.963  0.00  0.00     0.151 C 
ATOM      7  C           0     136.202 133.916 145.276  0.00  0.00     0.180 C 
ATOM      8  N           0     135.398 134.627 146.292  0.00  0.00    -0.216 N 
ATOM      9  C           0     134.142 134.817 145.769  0.00  0.00     0.670 C 
ATOM     10  N           0     133.291 135.700 146.209  0.00  0.00    -0.235 N 
ATOM     11  H           0     133.530 136.275 146.952  0.00  0.00     0.174 HD
ATOM     12  H           0     132.419 135.782 145.792  0.00  0.00     0.174 HD
ATOM     13  C           0     135.164 133.322 144.338  0.00  0.00     0.217 C 
ATOM     14  N           0     133.895 133.961 144.724  0.00  0.00    -0.191 N 
ATOM     15  N           0     135.062 131.865 144.415  0.00  0.00    -0.183 N 
ATOM     16  C           0     134.379 131.455 143.175  0.00  0.00     0.150 C 
ATOM     17  C           0     134.959 132.393 142.090  0.00  0.00     0.093 C 
ATOM     18  C           0     135.477 133.632 142.863  0.00  0.00     0.209 C 
ATOM     19  H           0     136.389 131.353 147.268  0.00  0.00     0.178 HD
ATOM     20  H           0     135.701 134.909 147.169  0.00  0.00     0.178 HD
ATOM     21  H           0     133.032 133.805 144.310  0.00  0.00     0.180 HD
ENDROOT
BRANCH   6  22
ATOM     22  C           0     138.198 132.474 145.007  0.00  0.00     0.208 C 
BRANCH  22  23
ATOM     23  O           0     139.029 131.467 145.640  0.00  0.00    -0.302 OA
BRANCH  23  24
ATOM     24  C           0     140.171 131.826 146.257  0.00  0.00     0.358 C 
ATOM     25  N           0     140.257 131.772 147.601  0.00  0.00    -0.346 N 
ATOM     26  H           0     139.496 131.474 148.124  0.00  0.00     0.161 HD
ATOM     27  H           0     141.079 132.031 148.046  0.00  0.00     0.161 HD
ATOM     28  O           0     141.124 132.198 145.602  0.00  0.00    -0.239 OA
ENDBRANCH  23  24
ENDBRANCH  22  23
ENDBRANCH   6  22
BRANCH  18  29
ATOM     29  O           0     134.786 134.809 142.439  0.00  0.00    -0.362 OA
ATOM     30  H           0     135.052 134.974 141.524  0.00  0.00     0.213 HD
ENDBRANCH  18  29
BRANCH  18  31
ATOM     31  O           0     136.885 133.784 142.676  0.00  0.00    -0.362 OA
ATOM     32  H           0     137.317 133.232 143.342  0.00  0.00     0.213 HD
ENDBRANCH  18  31
TORSDOF 5
ENDMDL
MODEL 9
REMARK VINA RESULT:      -6.5      2.879      4.021
REMARK  5 active torsions:
REMARK  status: ('A' for Active; 'I' for Inactive)
REMARK    1  A    between atoms: C_6  and  C_7 
REMARK    2  A    between atoms: C_7  and  O_8 
REMARK    3  A    between atoms: O_8  and  C_9 
REMARK       I    between atoms: C_9  and  N_10 
REMARK    4  A    between atoms: C_23  and  O_24 
REMARK    5  A    between atoms: C_23  and  O_25 
ROOT
ATOM      1  N           0     134.930 134.496 146.088  0.00  0.00    -0.235 N 
ATOM      2  H           0     134.206 134.924 145.604  0.00  0.00     0.174 HD
ATOM      3  H           0     135.519 135.027 146.648  0.00  0.00     0.174 HD
ATOM      4  C           0     135.109 133.209 145.989  0.00  0.00     0.672 C 
ATOM      5  N           0     134.294 132.409 145.207  0.00  0.00    -0.218 N 
ATOM      6  C           0     134.860 131.188 144.641  0.00  0.00     0.151 C 
ATOM      7  C           0     135.550 130.328 145.681  0.00  0.00     0.180 C 
ATOM      8  N           0     134.529 129.612 146.474  0.00  0.00    -0.216 N 
ATOM      9  C           0     134.948 129.607 147.782  0.00  0.00     0.670 C 
ATOM     10  N           0     134.509 128.780 148.690  0.00  0.00    -0.235 N 
ATOM     11  H           0     133.844 128.114 148.457  0.00  0.00     0.174 HD
ATOM     12  H           0     134.849 128.831 149.597  0.00  0.00     0.174 HD
ATOM     13  C           0     136.333 131.115 146.719  0.00  0.00     0.217 C 
ATOM     14  N           0     135.887 130.580 148.016  0.00  0.00    -0.191 N 
ATOM     15  N           0     136.121 132.561 146.648  0.00  0.00    -0.183 N 
ATOM     16  C           0     137.253 133.158 147.380  0.00  0.00     0.150 C 
ATOM     17  C           0     138.464 132.272 147.002  0.00  0.00     0.093 C 
ATOM     18  C           0     137.851 130.916 146.566  0.00  0.00     0.209 C 
ATOM     19  H           0     133.371 132.653 145.040  0.00  0.00     0.178 HD
ATOM     20  H           0     133.711 129.216 146.134  0.00  0.00     0.178 HD
ATOM     21  H           0     136.205 130.865 148.887  0.00  0.00     0.180 HD
ENDROOT
BRANCH   6  22
ATOM     22  C           0     135.877 131.569 143.563  0.00  0.00     0.208 C 
BRANCH  22  23
ATOM     23  O           0     135.187 131.806 142.308  0.00  0.00    -0.302 OA
BRANCH  23  24
ATOM     24  C           0     135.110 133.053 141.806  0.00  0.00     0.358 C 
ATOM     25  N           0     135.508 133.297 140.542  0.00  0.00    -0.346 N 
ATOM     26  H           0     135.850 132.573 139.993  0.00  0.00     0.161 HD
ATOM     27  H           0     135.454 134.195 140.180  0.00  0.00     0.161 HD
ATOM     28  O           0     134.682 133.959 142.494  0.00  0.00    -0.239 OA
ENDBRANCH  23  24
ENDBRANCH  22  23
ENDBRANCH   6  22
BRANCH  18  29
ATOM     29  O           0     138.310 129.866 147.419  0.00  0.00    -0.362 OA
ATOM     30  H           0     138.608 130.282 148.240  0.00  0.00     0.213 HD
ENDBRANCH  18  29
BRANCH  18  31
ATOM     31  O           0     138.181 130.635 145.204  0.00  0.00    -0.362 OA
ATOM     32  H           0     137.598 129.917 144.919  0.00  0.00     0.213 HD
ENDBRANCH  18  31
TORSDOF 5
ENDMDL
