# created with PyMOL 2.3.4
@<TRIPOS>MOLECULE
ligand_out_0001
32 34 1                 
SMALL
USER_CHARGES
@<TRIPOS>ATOM
1	   N	137.602	134.979	142.932	N.3	1	UNK0	-0.235	
2	   N	135.272	135.297	142.988	N.3	1	UNK0	-0.218	
3	   N	133.228	134.335	145.082	N.3	1	UNK0	-0.216	
4	   N	133.310	133.884	147.404	N.3	1	UNK0	-0.235	
5	   N	134.885	133.000	145.878	N.3	1	UNK0	-0.191	
6	   N	136.207	133.358	143.884	N.3	1	UNK0	-0.183	
7	   N	133.537	136.197	139.617	N.pl3	1	UNK0	-0.346	
8	   C	136.412	134.560	143.258	C.3	1	UNK0	0.672	
9	   C	134.016	134.581	142.785	C.3	1	UNK0	0.151	
10	   C	133.719	133.596	143.900	C.3	1	UNK0	0.180	
11	   C	133.779	133.748	146.195	C.3	1	UNK0	0.670	
12	   C	134.940	132.852	144.414	C.3	1	UNK0	0.217	
13	   C	137.185	132.280	144.115	C.3	1	UNK0	0.150	
14	   C	136.394	130.978	143.836	C.3	1	UNK0	0.093	
15	   C	134.906	131.361	144.038	C.3	1	UNK0	0.209	
16	   C	134.091	133.819	141.461	C.2	1	UNK0	0.208	
17	   C	133.141	134.912	139.518	C.2	1	UNK0	0.358	
18	   O	132.956	134.177	140.631	O.2	1	UNK0	-0.302	
19	   O	132.950	134.418	138.424	O.co2	1	UNK0	-0.239	
20	   O	134.332	130.588	145.094	O.2	1	UNK0	-0.362	
21	   O	134.174	131.171	142.825	O.2	1	UNK0	-0.362	
22	   H	137.711	135.833	142.486	 H	1	UNK0	0.174	
23	   H	138.380	134.437	143.139	 H	1	UNK0	0.174	
24	   H	132.521	134.428	147.559	 H	1	UNK0	0.174	
25	   H	133.748	133.440	148.146	 H	1	UNK0	0.174	
26	   H	135.307	136.265	142.936	 H	1	UNK0	0.178	
27	   H	132.626	135.095	145.075	 H	1	UNK0	0.178	
28	   H	135.521	132.630	146.510	 H	1	UNK0	0.180	
29	   H	133.689	136.592	140.490	 H	1	UNK0	0.161	
30	   H	133.669	136.727	138.815	 H	1	UNK0	0.161	
31	   H	135.017	130.487	145.769	 H	1	UNK0	0.213	
32	   H	133.816	130.273	142.852	 H	1	UNK0	0.213	
@<TRIPOS>BOND
1 1 8 1
2 1 22 1
3 1 23 1
4 2 9 1
5 2 26 1
6 3 11 1
7 3 27 1
8 4 24 1
9 4 25 1
10 5 28 1
11 6 13 1
12 7 29 1
13 7 30 1
14 2 8 1
15 6 8 1
16 9 10 1
17 9 16 1
18 3 10 1
19 10 12 1
20 4 11 1
21 5 11 1
22 5 12 1
23 6 12 1
24 12 15 1
25 13 14 1
26 14 15 1
27 15 20 2
28 15 21 2
29 16 18 2
30 7 17 1
31 17 19 2
32 17 18 2
33 20 31 1
34 21 32 1
@<TRIPOS>SUBSTRUCTURE
1	UNK0	1	GROUP	1 ****	UNK
