# created with PyMOL 2.3.4
@<TRIPOS>MOLECULE
ligand_out_0001
32 34 1                 
SMALL
USER_CHARGES
@<TRIPOS>ATOM
1	   N	138.973	133.133	142.967	N.3	1	UNK0	-0.235	
2	   N	137.201	134.675	143.084	N.3	1	UNK0	-0.218	
3	   N	135.584	135.633	145.531	N.3	1	UNK0	-0.211	
4	   N	136.064	135.906	147.832	N.3	1	UNK0	-0.235	
5	   N	136.562	133.916	146.654	N.3	1	UNK0	-0.191	
6	   N	137.295	132.890	144.586	N.3	1	UNK0	-0.183	
7	   N	132.871	131.796	141.866	N.pl3	1	UNK0	-0.346	
8	   C	137.870	133.548	143.526	C.3	1	UNK0	0.672	
9	   C	135.754	134.739	143.266	C.3	1	UNK0	0.151	
10	   C	135.332	134.441	144.692	C.3	1	UNK0	0.182	
11	   C	135.356	137.027	145.144	C.3	1	UNK0	0.169	
12	   C	136.069	135.195	146.739	C.3	1	UNK0	0.672	
13	   C	136.143	133.346	145.364	C.3	1	UNK0	0.217	
14	   C	137.671	131.573	145.124	C.3	1	UNK0	0.150	
15	   C	136.403	130.983	145.775	C.3	1	UNK0	0.093	
16	   C	135.308	132.070	145.597	C.3	1	UNK0	0.209	
17	   C	135.093	133.721	142.335	C.2	1	UNK0	0.208	
18	   C	132.859	133.119	141.611	C.2	1	UNK0	0.358	
19	   O	133.659	133.947	142.311	O.2	1	UNK0	-0.302	
20	   O	132.126	133.566	140.752	O.co2	1	UNK0	-0.239	
21	   O	134.510	132.186	146.776	O.2	1	UNK0	-0.362	
22	   O	134.494	131.789	144.457	O.2	1	UNK0	-0.362	
23	   H	139.349	133.619	142.218	 H	1	UNK0	0.174	
24	   H	139.419	132.341	143.305	 H	1	UNK0	0.174	
25	   H	135.699	136.805	147.823	 H	1	UNK0	0.174	
26	   H	136.423	135.536	148.653	 H	1	UNK0	0.174	
27	   H	137.682	135.406	142.664	 H	1	UNK0	0.178	
28	   H	137.091	133.465	147.329	 H	1	UNK0	0.180	
29	   H	133.456	131.439	142.552	 H	1	UNK0	0.161	
30	   H	132.294	131.200	141.362	 H	1	UNK0	0.161	
31	   H	135.074	131.941	147.521	 H	1	UNK0	0.213	
32	   H	134.768	132.401	143.760	 H	1	UNK0	0.213	
@<TRIPOS>BOND
1 1 8 1
2 1 23 1
3 1 24 1
4 2 9 1
5 2 27 1
6 3 11 1
7 3 12 1
8 4 25 1
9 4 26 1
10 5 28 1
11 6 14 1
12 7 29 1
13 7 30 1
14 2 8 1
15 6 8 1
16 9 10 1
17 9 17 1
18 3 10 1
19 10 13 1
20 4 12 1
21 5 12 1
22 5 13 1
23 6 13 1
24 13 16 1
25 14 15 1
26 15 16 1
27 16 21 2
28 16 22 2
29 17 19 2
30 7 18 1
31 18 20 2
32 18 19 2
33 21 31 1
34 22 32 1
@<TRIPOS>SUBSTRUCTURE
1	UNK0	1	GROUP	1 ****	UNK
