MODEL 1
REMARK VINA RESULT:      -7.1      0.000      0.000
REMARK  5 active torsions:
REMARK  status: ('A' for Active; 'I' for Inactive)
REMARK    1  A    between atoms: C_6  and  C_7 
REMARK    2  A    between atoms: C_7  and  O_8 
REMARK    3  A    between atoms: O_8  and  C_9 
REMARK       I    between atoms: C_9  and  N_10 
REMARK    4  A    between atoms: C_24  and  O_25 
REMARK    5  A    between atoms: C_24  and  O_26 
ROOT
ATOM      1  N           0     138.973 133.133 142.967  0.00  0.00    -0.235 N 
ATOM      2  H           0     139.349 133.619 142.218  0.00  0.00     0.174 HD
ATOM      3  H           0     139.419 132.341 143.305  0.00  0.00     0.174 HD
ATOM      4  C           0     137.870 133.548 143.526  0.00  0.00     0.672 C 
ATOM      5  N           0     137.201 134.675 143.084  0.00  0.00    -0.218 N 
ATOM      6  C           0     135.754 134.739 143.266  0.00  0.00     0.151 C 
ATOM      7  C           0     135.332 134.441 144.692  0.00  0.00     0.182 C 
ATOM      8  N           0     135.584 135.633 145.531  0.00  0.00    -0.211 N 
ATOM      9  C           0     135.356 137.027 145.144  0.00  0.00     0.169 C 
ATOM     10  C           0     136.069 135.195 146.739  0.00  0.00     0.672 C 
ATOM     11  N           0     136.064 135.906 147.832  0.00  0.00    -0.235 N 
ATOM     12  H           0     135.699 136.805 147.823  0.00  0.00     0.174 HD
ATOM     13  H           0     136.423 135.536 148.653  0.00  0.00     0.174 HD
ATOM     14  C           0     136.143 133.346 145.364  0.00  0.00     0.217 C 
ATOM     15  N           0     136.562 133.916 146.654  0.00  0.00    -0.191 N 
ATOM     16  N           0     137.295 132.890 144.586  0.00  0.00    -0.183 N 
ATOM     17  C           0     137.671 131.573 145.124  0.00  0.00     0.150 C 
ATOM     18  C           0     136.403 130.983 145.775  0.00  0.00     0.093 C 
ATOM     19  C           0     135.308 132.070 145.597  0.00  0.00     0.209 C 
ATOM     20  H           0     137.682 135.406 142.664  0.00  0.00     0.178 HD
ATOM     21  H           0     137.091 133.465 147.329  0.00  0.00     0.180 HD
ENDROOT
BRANCH   6  22
ATOM     22  C           0     135.093 133.721 142.335  0.00  0.00     0.208 C 
BRANCH  22  23
ATOM     23  O           0     133.659 133.947 142.311  0.00  0.00    -0.302 OA
BRANCH  23  24
ATOM     24  C           0     132.859 133.119 141.611  0.00  0.00     0.358 C 
ATOM     25  N           0     132.871 131.796 141.866  0.00  0.00    -0.346 N 
ATOM     26  H           0     133.456 131.439 142.552  0.00  0.00     0.161 HD
ATOM     27  H           0     132.294 131.200 141.362  0.00  0.00     0.161 HD
ATOM     28  O           0     132.126 133.566 140.752  0.00  0.00    -0.239 OA
ENDBRANCH  23  24
ENDBRANCH  22  23
ENDBRANCH   6  22
BRANCH  19  29
ATOM     29  O           0     134.510 132.186 146.776  0.00  0.00    -0.362 OA
ATOM     30  H           0     135.074 131.941 147.521  0.00  0.00     0.213 HD
ENDBRANCH  19  29
BRANCH  19  31
ATOM     31  O           0     134.494 131.789 144.457  0.00  0.00    -0.362 OA
ATOM     32  H           0     134.768 132.401 143.760  0.00  0.00     0.213 HD
ENDBRANCH  19  31
TORSDOF 5
ENDMDL
MODEL 2
REMARK VINA RESULT:      -6.7     11.811     13.849
REMARK  5 active torsions:
REMARK  status: ('A' for Active; 'I' for Inactive)
REMARK    1  A    between atoms: C_6  and  C_7 
REMARK    2  A    between atoms: C_7  and  O_8 
REMARK    3  A    between atoms: O_8  and  C_9 
REMARK       I    between atoms: C_9  and  N_10 
REMARK    4  A    between atoms: C_24  and  O_25 
REMARK    5  A    between atoms: C_24  and  O_26 
ROOT
ATOM      1  N           0     130.621 131.795 135.280  0.00  0.00    -0.235 N 
ATOM      2  H           0     129.800 132.183 135.620  0.00  0.00     0.174 HD
ATOM      3  H           0     131.472 132.033 135.679  0.00  0.00     0.174 HD
ATOM      4  C           0     130.579 130.947 134.290  0.00  0.00     0.672 C 
ATOM      5  N           0     129.390 130.572 133.693  0.00  0.00    -0.218 N 
ATOM      6  C           0     129.412 130.178 132.287  0.00  0.00     0.151 C 
ATOM      7  C           0     130.467 129.127 131.994  0.00  0.00     0.182 C 
ATOM      8  N           0     129.976 127.809 132.451  0.00  0.00    -0.211 N 
ATOM      9  C           0     128.608 127.302 132.323  0.00  0.00     0.169 C 
ATOM     10  C           0     131.038 127.146 133.018  0.00  0.00     0.672 C 
ATOM     11  N           0     131.083 125.855 133.200  0.00  0.00    -0.235 N 
ATOM     12  H           0     130.334 125.302 132.928  0.00  0.00     0.174 HD
ATOM     13  H           0     131.864 125.450 133.607  0.00  0.00     0.174 HD
ATOM     14  C           0     131.765 129.319 132.759  0.00  0.00     0.217 C 
ATOM     15  N           0     132.046 128.009 133.368  0.00  0.00    -0.191 N 
ATOM     16  N           0     131.715 130.375 133.770  0.00  0.00    -0.183 N 
ATOM     17  C           0     133.109 130.737 134.068  0.00  0.00     0.150 C 
ATOM     18  C           0     133.941 130.358 132.825  0.00  0.00     0.093 C 
ATOM     19  C           0     132.926 129.729 131.831  0.00  0.00     0.209 C 
ATOM     20  H           0     128.560 130.569 134.196  0.00  0.00     0.178 HD
ATOM     21  H           0     132.814 127.793 133.920  0.00  0.00     0.180 HD
ENDROOT
BRANCH   6  22
ATOM     22  C           0     129.699 131.414 131.432  0.00  0.00     0.208 C 
BRANCH  22  23
ATOM     23  O           0     128.445 132.026 131.031  0.00  0.00    -0.302 OA
BRANCH  23  24
ATOM     24  C           0     127.900 133.000 131.785  0.00  0.00     0.358 C 
ATOM     25  N           0     128.680 133.738 132.599  0.00  0.00    -0.346 N 
ATOM     26  H           0     129.634 133.567 132.643  0.00  0.00     0.161 HD
ATOM     27  H           0     128.288 134.440 133.141  0.00  0.00     0.161 HD
ATOM     28  O           0     126.705 133.215 131.729  0.00  0.00    -0.239 OA
ENDBRANCH  23  24
ENDBRANCH  22  23
ENDBRANCH   6  22
BRANCH  19  29
ATOM     29  O           0     133.492 128.591 131.180  0.00  0.00    -0.362 OA
ATOM     30  H           0     133.235 127.816 131.697  0.00  0.00     0.213 HD
ENDBRANCH  19  29
BRANCH  19  31
ATOM     31  O           0     132.487 130.696 130.876  0.00  0.00    -0.362 OA
ATOM     32  H           0     133.078 131.457 130.956  0.00  0.00     0.213 HD
ENDBRANCH  19  31
TORSDOF 5
ENDMDL
MODEL 3
REMARK VINA RESULT:      -6.6      2.135      3.317
REMARK  5 active torsions:
REMARK  status: ('A' for Active; 'I' for Inactive)
REMARK    1  A    between atoms: C_6  and  C_7 
REMARK    2  A    between atoms: C_7  and  O_8 
REMARK    3  A    between atoms: O_8  and  C_9 
REMARK       I    between atoms: C_9  and  N_10 
REMARK    4  A    between atoms: C_24  and  O_25 
REMARK    5  A    between atoms: C_24  and  O_26 
ROOT
ATOM      1  N           0     137.786 134.060 142.145  0.00  0.00    -0.235 N 
ATOM      2  H           0     138.264 134.895 142.027  0.00  0.00     0.174 HD
ATOM      3  H           0     137.569 133.512 141.375  0.00  0.00     0.174 HD
ATOM      4  C           0     137.440 133.670 143.341  0.00  0.00     0.672 C 
ATOM      5  N           0     137.732 134.414 144.469  0.00  0.00    -0.218 N 
ATOM      6  C           0     136.838 134.311 145.619  0.00  0.00     0.151 C 
ATOM      7  C           0     136.579 132.873 146.027  0.00  0.00     0.182 C 
ATOM      8  N           0     137.750 132.363 146.774  0.00  0.00    -0.211 N 
ATOM      9  C           0     138.539 133.106 147.758  0.00  0.00     0.169 C 
ATOM     10  C           0     137.962 131.065 146.376  0.00  0.00     0.672 C 
ATOM     11  N           0     138.655 130.195 147.056  0.00  0.00    -0.235 N 
ATOM     12  H           0     139.059 130.450 147.900  0.00  0.00     0.174 HD
ATOM     13  H           0     138.766 129.292 146.718  0.00  0.00     0.174 HD
ATOM     14  C           0     136.444 131.910 144.860  0.00  0.00     0.217 C 
ATOM     15  N           0     137.353 130.797 145.175  0.00  0.00    -0.191 N 
ATOM     16  N           0     136.757 132.498 143.558  0.00  0.00    -0.183 N 
ATOM     17  C           0     136.147 131.624 142.544  0.00  0.00     0.150 C 
ATOM     18  C           0     134.980 130.891 143.236  0.00  0.00     0.093 C 
ATOM     19  C           0     135.002 131.386 144.708  0.00  0.00     0.209 C 
ATOM     20  H           0     138.512 134.991 144.497  0.00  0.00     0.178 HD
ATOM     21  H           0     137.496 130.008 144.630  0.00  0.00     0.180 HD
ENDROOT
BRANCH   6  22
ATOM     22  C           0     135.503 134.970 145.269  0.00  0.00     0.208 C 
BRANCH  22  23
ATOM     23  O           0     135.667 135.793 144.084  0.00  0.00    -0.302 OA
BRANCH  23  24
ATOM     24  C           0     134.714 135.799 143.131  0.00  0.00     0.358 C 
ATOM     25  N           0     134.414 136.943 142.486  0.00  0.00    -0.346 N 
ATOM     26  H           0     134.883 137.763 142.708  0.00  0.00     0.161 HD
ATOM     27  H           0     133.729 136.947 141.800  0.00  0.00     0.161 HD
ATOM     28  O           0     134.128 134.772 142.852  0.00  0.00    -0.239 OA
ENDBRANCH  23  24
ENDBRANCH  22  23
ENDBRANCH   6  22
BRANCH  19  29
ATOM     29  O           0     134.747 130.308 145.611  0.00  0.00    -0.362 OA
ATOM     30  H           0     133.798 130.129 145.571  0.00  0.00     0.213 HD
ENDBRANCH  19  29
BRANCH  19  31
ATOM     31  O           0     134.061 132.444 144.901  0.00  0.00    -0.362 OA
ATOM     32  H           0     134.215 133.086 144.195  0.00  0.00     0.213 HD
ENDBRANCH  19  31
TORSDOF 5
ENDMDL
MODEL 4
REMARK VINA RESULT:      -6.5      2.446      4.832
REMARK  5 active torsions:
REMARK  status: ('A' for Active; 'I' for Inactive)
REMARK    1  A    between atoms: C_6  and  C_7 
REMARK    2  A    between atoms: C_7  and  O_8 
REMARK    3  A    between atoms: O_8  and  C_9 
REMARK       I    between atoms: C_9  and  N_10 
REMARK    4  A    between atoms: C_24  and  O_25 
REMARK    5  A    between atoms: C_24  and  O_26 
ROOT
ATOM      1  N           0     134.649 131.824 146.680  0.00  0.00    -0.235 N 
ATOM      2  H           0     134.788 131.954 147.631  0.00  0.00     0.174 HD
ATOM      3  H           0     134.097 131.091 146.365  0.00  0.00     0.174 HD
ATOM      4  C           0     135.199 132.639 145.824  0.00  0.00     0.672 C 
ATOM      5  N           0     135.989 133.702 146.223  0.00  0.00    -0.218 N 
ATOM      6  C           0     137.044 134.160 145.324  0.00  0.00     0.151 C 
ATOM      7  C           0     136.537 134.421 143.918  0.00  0.00     0.182 C 
ATOM      8  N           0     135.824 135.718 143.894  0.00  0.00    -0.211 N 
ATOM      9  C           0     136.225 136.938 144.596  0.00  0.00     0.169 C 
ATOM     10  C           0     134.720 135.568 143.091  0.00  0.00     0.672 C 
ATOM     11  N           0     134.068 136.560 142.551  0.00  0.00    -0.235 N 
ATOM     12  H           0     134.357 137.472 142.707  0.00  0.00     0.174 HD
ATOM     13  H           0     133.294 136.385 141.993  0.00  0.00     0.174 HD
ATOM     14  C           0     135.496 133.425 143.437  0.00  0.00     0.217 C 
ATOM     15  N           0     134.387 134.246 142.927  0.00  0.00    -0.191 N 
ATOM     16  N           0     135.037 132.493 144.467  0.00  0.00    -0.183 N 
ATOM     17  C           0     134.427 131.355 143.762  0.00  0.00     0.150 C 
ATOM     18  C           0     135.065 131.311 142.358  0.00  0.00     0.093 C 
ATOM     19  C           0     136.040 132.519 142.315  0.00  0.00     0.209 C 
ATOM     20  H           0     135.845 134.133 147.081  0.00  0.00     0.178 HD
ATOM     21  H           0     133.564 133.912 142.539  0.00  0.00     0.180 HD
ENDROOT
BRANCH   6  22
ATOM     22  C           0     138.138 133.093 145.261  0.00  0.00     0.208 C 
BRANCH  22  23
ATOM     23  O           0     138.530 132.722 146.609  0.00  0.00    -0.302 OA
BRANCH  23  24
ATOM     24  C           0     138.592 131.423 146.959  0.00  0.00     0.358 C 
ATOM     25  N           0     138.170 130.474 146.099  0.00  0.00    -0.346 N 
ATOM     26  H           0     137.822 130.726 145.230  0.00  0.00     0.161 HD
ATOM     27  H           0     138.216 129.538 146.350  0.00  0.00     0.161 HD
ATOM     28  O           0     139.029 131.106 148.047  0.00  0.00    -0.239 OA
ENDBRANCH  23  24
ENDBRANCH  22  23
ENDBRANCH   6  22
BRANCH  19  29
ATOM     29  O           0     135.980 133.175 141.048  0.00  0.00    -0.362 OA
ATOM     30  H           0     135.062 133.123 140.749  0.00  0.00     0.213 HD
ENDBRANCH  19  29
BRANCH  19  31
ATOM     31  O           0     137.375 132.103 142.609  0.00  0.00    -0.362 OA
ATOM     32  H           0     137.915 132.331 141.839  0.00  0.00     0.213 HD
ENDBRANCH  19  31
TORSDOF 5
ENDMDL
MODEL 5
REMARK VINA RESULT:      -6.5      8.612     11.026
REMARK  5 active torsions:
REMARK  status: ('A' for Active; 'I' for Inactive)
REMARK    1  A    between atoms: C_6  and  C_7 
REMARK    2  A    between atoms: C_7  and  O_8 
REMARK    3  A    between atoms: O_8  and  C_9 
REMARK       I    between atoms: C_9  and  N_10 
REMARK    4  A    between atoms: C_24  and  O_25 
REMARK    5  A    between atoms: C_24  and  O_26 
ROOT
ATOM      1  N           0     134.164 132.396 132.978  0.00  0.00    -0.235 N 
ATOM      2  H           0     134.075 131.577 132.465  0.00  0.00     0.174 HD
ATOM      3  H           0     135.043 132.767 133.150  0.00  0.00     0.174 HD
ATOM      4  C           0     133.100 133.001 133.429  0.00  0.00     0.672 C 
ATOM      5  N           0     131.826 132.513 133.203  0.00  0.00    -0.218 N 
ATOM      6  C           0     130.787 132.803 134.187  0.00  0.00     0.151 C 
ATOM      7  C           0     130.700 134.280 134.523  0.00  0.00     0.182 C 
ATOM      8  N           0     129.992 134.984 133.431  0.00  0.00    -0.211 N 
ATOM      9  C           0     128.824 134.491 132.698  0.00  0.00     0.169 C 
ATOM     10  C           0     130.630 136.184 133.231  0.00  0.00     0.672 C 
ATOM     11  N           0     130.094 137.205 132.621  0.00  0.00    -0.235 N 
ATOM     12  H           0     129.189 137.143 132.277  0.00  0.00     0.174 HD
ATOM     13  H           0     130.600 138.025 132.512  0.00  0.00     0.174 HD
ATOM     14  C           0     132.046 134.981 134.596  0.00  0.00     0.217 C 
ATOM     15  N           0     131.900 136.177 133.751  0.00  0.00    -0.191 N 
ATOM     16  N           0     133.175 134.159 134.164  0.00  0.00    -0.183 N 
ATOM     17  C           0     134.386 134.783 134.719  0.00  0.00     0.150 C 
ATOM     18  C           0     133.942 135.584 135.960  0.00  0.00     0.093 C 
ATOM     19  C           0     132.402 135.396 136.038  0.00  0.00     0.209 C 
ATOM     20  H           0     131.627 131.991 132.409  0.00  0.00     0.178 HD
ATOM     21  H           0     132.583 136.846 133.591  0.00  0.00     0.180 HD
ENDROOT
BRANCH   6  22
ATOM     22  C           0     131.089 132.024 135.469  0.00  0.00     0.208 C 
BRANCH  22  23
ATOM     23  O           0     130.191 132.461 136.523  0.00  0.00    -0.302 OA
BRANCH  23  24
ATOM     24  C           0     130.267 131.902 137.746  0.00  0.00     0.358 C 
ATOM     25  N           0     130.861 132.570 138.755  0.00  0.00    -0.346 N 
ATOM     26  H           0     131.235 133.451 138.601  0.00  0.00     0.161 HD
ATOM     27  H           0     130.915 132.168 139.636  0.00  0.00     0.161 HD
ATOM     28  O           0     129.798 130.799 137.940  0.00  0.00    -0.239 OA
ENDBRANCH  23  24
ENDBRANCH  22  23
ENDBRANCH   6  22
BRANCH  19  29
ATOM     29  O           0     131.758 136.619 136.397  0.00  0.00    -0.362 OA
ATOM     30  H           0     132.441 137.303 136.405  0.00  0.00     0.213 HD
ENDBRANCH  19  29
BRANCH  19  31
ATOM     31  O           0     132.064 134.355 136.957  0.00  0.00    -0.362 OA
ATOM     32  H           0     131.228 134.609 137.372  0.00  0.00     0.213 HD
ENDBRANCH  19  31
TORSDOF 5
ENDMDL
MODEL 6
REMARK VINA RESULT:      -6.4      8.885     12.446
REMARK  5 active torsions:
REMARK  status: ('A' for Active; 'I' for Inactive)
REMARK    1  A    between atoms: C_6  and  C_7 
REMARK    2  A    between atoms: C_7  and  O_8 
REMARK    3  A    between atoms: O_8  and  C_9 
REMARK       I    between atoms: C_9  and  N_10 
REMARK    4  A    between atoms: C_24  and  O_25 
REMARK    5  A    between atoms: C_24  and  O_26 
ROOT
ATOM      1  N           0     129.987 134.654 131.913  0.00  0.00    -0.235 N 
ATOM      2  H           0     130.193 135.590 132.066  0.00  0.00     0.174 HD
ATOM      3  H           0     129.255 134.408 131.327  0.00  0.00     0.174 HD
ATOM      4  C           0     130.699 133.728 132.491  0.00  0.00     0.672 C 
ATOM      5  N           0     131.756 134.029 133.331  0.00  0.00    -0.218 N 
ATOM      6  C           0     132.086 133.088 134.397  0.00  0.00     0.151 C 
ATOM      7  C           0     132.246 131.667 133.890  0.00  0.00     0.182 C 
ATOM      8  N           0     133.566 131.532 133.235  0.00  0.00    -0.211 N 
ATOM      9  C           0     134.825 132.124 133.695  0.00  0.00     0.169 C 
ATOM     10  C           0     133.397 130.751 132.118  0.00  0.00     0.672 C 
ATOM     11  N           0     134.366 130.129 131.505  0.00  0.00    -0.235 N 
ATOM     12  H           0     135.274 130.203 131.836  0.00  0.00     0.174 HD
ATOM     13  H           0     134.178 129.593 130.720  0.00  0.00     0.174 HD
ATOM     14  C           0     131.259 131.280 132.802  0.00  0.00     0.217 C 
ATOM     15  N           0     132.082 130.706 131.725  0.00  0.00    -0.191 N 
ATOM     16  N           0     130.443 132.390 132.311  0.00  0.00    -0.183 N 
ATOM     17  C           0     129.276 131.790 131.645  0.00  0.00     0.150 C 
ATOM     18  C           0     129.081 130.393 132.268  0.00  0.00     0.093 C 
ATOM     19  C           0     130.235 130.239 133.296  0.00  0.00     0.209 C 
ATOM     20  H           0     132.266 134.846 133.214  0.00  0.00     0.178 HD
ATOM     21  H           0     131.752 130.353 130.885  0.00  0.00     0.180 HD
ENDROOT
BRANCH   6  22
ATOM     22  C           0     130.970 133.113 135.443  0.00  0.00     0.208 C 
BRANCH  22  23
ATOM     23  O           0     131.195 132.060 136.416  0.00  0.00    -0.302 OA
BRANCH  23  24
ATOM     24  C           0     130.455 132.013 137.540  0.00  0.00     0.358 C 
ATOM     25  N           0     130.836 132.713 138.627  0.00  0.00    -0.346 N 
ATOM     26  H           0     131.643 133.250 138.601  0.00  0.00     0.161 HD
ATOM     27  H           0     130.302 132.680 139.437  0.00  0.00     0.161 HD
ATOM     28  O           0     129.443 131.342 137.574  0.00  0.00    -0.239 OA
ENDBRANCH  23  24
ENDBRANCH  22  23
ENDBRANCH   6  22
BRANCH  19  29
ATOM     29  O           0     130.781 128.919 133.253  0.00  0.00    -0.362 OA
ATOM     30  H           0     131.628 128.981 132.791  0.00  0.00     0.213 HD
ENDBRANCH  19  29
BRANCH  19  31
ATOM     31  O           0     129.788 130.562 134.613  0.00  0.00    -0.362 OA
ATOM     32  H           0     129.051 129.967 134.812  0.00  0.00     0.213 HD
ENDBRANCH  19  31
TORSDOF 5
ENDMDL
MODEL 7
REMARK VINA RESULT:      -6.3      7.418     10.985
REMARK  5 active torsions:
REMARK  status: ('A' for Active; 'I' for Inactive)
REMARK    1  A    between atoms: C_6  and  C_7 
REMARK    2  A    between atoms: C_7  and  O_8 
REMARK    3  A    between atoms: O_8  and  C_9 
REMARK       I    between atoms: C_9  and  N_10 
REMARK    4  A    between atoms: C_24  and  O_25 
REMARK    5  A    between atoms: C_24  and  O_26 
ROOT
ATOM      1  N           0     130.330 132.759 136.384  0.00  0.00    -0.235 N 
ATOM      2  H           0     129.741 133.113 137.068  0.00  0.00     0.174 HD
ATOM      3  H           0     130.333 131.808 136.192  0.00  0.00     0.174 HD
ATOM      4  C           0     131.112 133.560 135.717  0.00  0.00     0.672 C 
ATOM      5  N           0     131.138 134.923 135.949  0.00  0.00    -0.218 N 
ATOM      6  C           0     132.379 135.648 135.691  0.00  0.00     0.151 C 
ATOM      7  C           0     132.938 135.371 134.308  0.00  0.00     0.182 C 
ATOM      8  N           0     132.168 136.147 133.311  0.00  0.00    -0.211 N 
ATOM      9  C           0     131.681 137.519 133.470  0.00  0.00     0.169 C 
ATOM     10  C           0     131.994 135.346 132.208  0.00  0.00     0.672 C 
ATOM     11  N           0     131.691 135.791 131.021  0.00  0.00    -0.235 N 
ATOM     12  H           0     131.575 136.743 130.875  0.00  0.00     0.174 HD
ATOM     13  H           0     131.582 135.171 130.283  0.00  0.00     0.174 HD
ATOM     14  C           0     132.779 133.931 133.851  0.00  0.00     0.217 C 
ATOM     15  N           0     132.179 134.019 132.510  0.00  0.00    -0.191 N 
ATOM     16  N           0     131.967 133.104 134.743  0.00  0.00    -0.183 N 
ATOM     17  C           0     132.292 131.704 134.430  0.00  0.00     0.150 C 
ATOM     18  C           0     133.708 131.705 133.817  0.00  0.00     0.093 C 
ATOM     19  C           0     134.134 133.198 133.775  0.00  0.00     0.209 C 
ATOM     20  H           0     130.350 135.387 136.276  0.00  0.00     0.178 HD
ATOM     21  H           0     131.956 133.270 131.937  0.00  0.00     0.180 HD
ENDROOT
BRANCH   6  22
ATOM     22  C           0     133.419 135.234 136.734  0.00  0.00     0.208 C 
BRANCH  22  23
ATOM     23  O           0     132.750 134.620 137.867  0.00  0.00    -0.302 OA
BRANCH  23  24
ATOM     24  C           0     133.205 134.838 139.116  0.00  0.00     0.358 C 
ATOM     25  N           0     133.501 136.090 139.516  0.00  0.00    -0.346 N 
ATOM     26  H           0     133.388 136.835 138.904  0.00  0.00     0.161 HD
ATOM     27  H           0     133.828 136.248 140.415  0.00  0.00     0.161 HD
ATOM     28  O           0     133.346 133.906 139.882  0.00  0.00    -0.239 OA
ENDBRANCH  23  24
ENDBRANCH  22  23
ENDBRANCH   6  22
BRANCH  19  29
ATOM     29  O           0     134.815 133.498 132.556  0.00  0.00    -0.362 OA
ATOM     30  H           0     134.687 132.739 131.970  0.00  0.00     0.213 HD
ENDBRANCH  19  29
BRANCH  19  31
ATOM     31  O           0     134.945 133.526 134.904  0.00  0.00    -0.362 OA
ATOM     32  H           0     134.461 134.191 135.413  0.00  0.00     0.213 HD
ENDBRANCH  19  31
TORSDOF 5
ENDMDL
MODEL 8
REMARK VINA RESULT:      -6.3      2.832      5.177
REMARK  5 active torsions:
REMARK  status: ('A' for Active; 'I' for Inactive)
REMARK    1  A    between atoms: C_6  and  C_7 
REMARK    2  A    between atoms: C_7  and  O_8 
REMARK    3  A    between atoms: O_8  and  C_9 
REMARK       I    between atoms: C_9  and  N_10 
REMARK    4  A    between atoms: C_24  and  O_25 
REMARK    5  A    between atoms: C_24  and  O_26 
ROOT
ATOM      1  N           0     134.272 130.394 144.816  0.00  0.00    -0.235 N 
ATOM      2  H           0     134.037 129.775 145.524  0.00  0.00     0.174 HD
ATOM      3  H           0     133.872 130.300 143.937  0.00  0.00     0.174 HD
ATOM      4  C           0     135.120 131.358 145.046  0.00  0.00     0.672 C 
ATOM      5  N           0     135.711 131.536 146.283  0.00  0.00    -0.218 N 
ATOM      6  C           0     137.037 132.145 146.338  0.00  0.00     0.151 C 
ATOM      7  C           0     137.111 133.447 145.562  0.00  0.00     0.182 C 
ATOM      8  N           0     136.482 134.523 146.358  0.00  0.00    -0.211 N 
ATOM      9  C           0     136.599 134.709 147.806  0.00  0.00     0.169 C 
ATOM     10  C           0     135.767 135.315 145.493  0.00  0.00     0.672 C 
ATOM     11  N           0     135.386 136.533 145.760  0.00  0.00    -0.235 N 
ATOM     12  H           0     135.607 136.933 146.616  0.00  0.00     0.174 HD
ATOM     13  H           0     134.883 137.039 145.103  0.00  0.00     0.174 HD
ATOM     14  C           0     136.320 133.443 144.265  0.00  0.00     0.217 C 
ATOM     15  N           0     135.503 134.666 144.312  0.00  0.00    -0.191 N 
ATOM     16  N           0     135.488 132.256 144.074  0.00  0.00    -0.183 N 
ATOM     17  C           0     135.179 132.187 142.637  0.00  0.00     0.150 C 
ATOM     18  C           0     136.305 132.945 141.905  0.00  0.00     0.093 C 
ATOM     19  C           0     137.240 133.471 143.028  0.00  0.00     0.209 C 
ATOM     20  H           0     135.256 131.262 147.096  0.00  0.00     0.178 HD
ATOM     21  H           0     134.887 134.964 143.625  0.00  0.00     0.180 HD
ENDROOT
BRANCH   6  22
ATOM     22  C           0     138.056 131.165 145.754  0.00  0.00     0.208 C 
BRANCH  22  23
ATOM     23  O           0     139.368 131.789 145.731  0.00  0.00    -0.302 OA
BRANCH  23  24
ATOM     24  C           0     140.353 131.312 146.515  0.00  0.00     0.358 C 
ATOM     25  N           0     140.484 129.983 146.699  0.00  0.00    -0.346 N 
ATOM     26  H           0     139.868 129.370 146.268  0.00  0.00     0.161 HD
ATOM     27  H           0     141.194 129.640 147.264  0.00  0.00     0.161 HD
ATOM     28  O           0     141.125 132.079 147.055  0.00  0.00    -0.239 OA
ENDBRANCH  23  24
ENDBRANCH  22  23
ENDBRANCH   6  22
BRANCH  19  29
ATOM     29  O           0     137.679 134.800 142.742  0.00  0.00    -0.362 OA
ATOM     30  H           0     136.921 135.271 142.371  0.00  0.00     0.213 HD
ENDBRANCH  19  29
BRANCH  19  31
ATOM     31  O           0     138.354 132.595 143.212  0.00  0.00    -0.362 OA
ATOM     32  H           0     138.065 131.714 142.936  0.00  0.00     0.213 HD
ENDBRANCH  19  31
TORSDOF 5
ENDMDL
MODEL 9
REMARK VINA RESULT:      -6.2      9.546     11.399
REMARK  5 active torsions:
REMARK  status: ('A' for Active; 'I' for Inactive)
REMARK    1  A    between atoms: C_6  and  C_7 
REMARK    2  A    between atoms: C_7  and  O_8 
REMARK    3  A    between atoms: O_8  and  C_9 
REMARK       I    between atoms: C_9  and  N_10 
REMARK    4  A    between atoms: C_24  and  O_25 
REMARK    5  A    between atoms: C_24  and  O_26 
ROOT
ATOM      1  N           0     134.721 132.950 132.867  0.00  0.00    -0.235 N 
ATOM      2  H           0     134.746 132.267 132.179  0.00  0.00     0.174 HD
ATOM      3  H           0     135.541 133.230 133.303  0.00  0.00     0.174 HD
ATOM      4  C           0     133.585 133.498 133.201  0.00  0.00     0.672 C 
ATOM      5  N           0     132.392 133.137 132.604  0.00  0.00    -0.218 N 
ATOM      6  C           0     131.161 133.261 133.380  0.00  0.00     0.151 C 
ATOM      7  C           0     131.006 134.633 134.008  0.00  0.00     0.182 C 
ATOM      8  N           0     130.559 135.591 132.973  0.00  0.00    -0.211 N 
ATOM      9  C           0     129.581 135.329 131.916  0.00  0.00     0.169 C 
ATOM     10  C           0     131.228 136.772 133.186  0.00  0.00     0.672 C 
ATOM     11  N           0     130.843 137.926 132.716  0.00  0.00    -0.235 N 
ATOM     12  H           0     130.037 137.987 132.181  0.00  0.00     0.174 HD
ATOM     13  H           0     131.363 138.723 132.904  0.00  0.00     0.174 HD
ATOM     14  C           0     132.303 135.232 134.523  0.00  0.00     0.217 C 
ATOM     15  N           0     132.352 136.587 133.953  0.00  0.00    -0.191 N 
ATOM     16  N           0     133.498 134.465 134.172  0.00  0.00    -0.183 N 
ATOM     17  C           0     134.558 134.891 135.100  0.00  0.00     0.150 C 
ATOM     18  C           0     133.852 135.428 136.362  0.00  0.00     0.093 C 
ATOM     19  C           0     132.333 135.307 136.063  0.00  0.00     0.209 C 
ATOM     20  H           0     132.372 132.809 131.690  0.00  0.00     0.178 HD
ATOM     21  H           0     133.055 137.239 134.096  0.00  0.00     0.180 HD
ENDROOT
BRANCH   6  22
ATOM     22  C           0     131.170 132.210 134.492  0.00  0.00     0.208 C 
BRANCH  22  23
ATOM     23  O           0     131.173 130.883 133.903  0.00  0.00    -0.302 OA
BRANCH  23  24
ATOM     24  C           0     132.273 130.110 133.988  0.00  0.00     0.358 C 
ATOM     25  N           0     132.266 128.868 133.465  0.00  0.00    -0.346 N 
ATOM     26  H           0     131.469 128.530 133.028  0.00  0.00     0.161 HD
ATOM     27  H           0     133.058 128.312 133.525  0.00  0.00     0.161 HD
ATOM     28  O           0     133.272 130.534 134.534  0.00  0.00    -0.239 OA
ENDBRANCH  23  24
ENDBRANCH  22  23
ENDBRANCH   6  22
BRANCH  19  29
ATOM     29  O           0     131.628 136.456 136.537  0.00  0.00    -0.362 OA
ATOM     30  H           0     130.858 136.568 135.963  0.00  0.00     0.213 HD
ENDBRANCH  19  29
BRANCH  19  31
ATOM     31  O           0     131.797 134.111 136.634  0.00  0.00    -0.362 OA
ATOM     32  H           0     132.495 133.443 136.587  0.00  0.00     0.213 HD
ENDBRANCH  19  31
TORSDOF 5
ENDMDL
