# created with PyMOL 2.3.4
@<TRIPOS>MOLECULE
ligand_out_0001
80 86 1                 
SMALL
USER_CHARGES
@<TRIPOS>ATOM
1	   N	133.417	135.384	137.283	N.pl3	1	UNK0	-0.361	
2	   N	133.723	136.880	131.263	N.3	1	UNK0	-0.349	
3	   N	131.892	130.590	131.429	N.3	1	UNK0	-0.353	
4	   N	135.569	133.934	144.443	N.pl3	1	UNK0	-0.337	
5	   N	135.225	128.671	146.357	N.3	1	UNK0	-0.218	
6	   N	133.149	128.101	147.303	N.3	1	UNK0	-0.235	
7	   N	134.745	129.262	148.561	N.3	1	UNK0	-0.183	
8	   N	136.848	128.869	149.690	N.3	1	UNK0	-0.191	
9	   N	137.977	128.930	147.720	N.3	1	UNK0	-0.216	
10	   N	139.010	127.916	149.592	N.3	1	UNK0	-0.235	
11	   C	134.554	135.381	136.558	C.2	1	UNK0	0.217	
12	   C	134.503	135.110	135.077	C.3	1	UNK0	0.103	
13	   C	135.380	136.124	134.342	C.3	1	UNK0	0.009	
14	   C	135.504	135.721	132.871	C.3	1	UNK0	0.002	
15	   C	136.035	136.904	132.061	C.3	1	UNK0	0.020	
16	   C	135.105	137.170	130.875	C.3	1	UNK0	0.129	
17	   C	132.737	137.851	131.424	C.3	1	UNK0	0.042	
18	   C	132.794	139.236	131.274	C.3	1	UNK0	0.032	
19	   C	131.533	137.263	131.795	C.3	1	UNK0	-0.016	
20	   C	131.668	140.003	131.491	C.3	1	UNK0	0.028	
21	   C	130.476	139.407	131.859	C.3	1	UNK0	0.081	
22	   C	130.411	138.033	132.011	C.3	1	UNK0	0.036	
23	   C	131.782	135.774	131.875	C.3	1	UNK0	0.024	
24	   C	133.242	135.621	131.505	C.3	1	UNK0	0.024	
25	   C	131.528	135.266	133.296	C.3	1	UNK0	0.027	
26	   C	130.896	135.028	130.875	C.3	1	UNK0	0.027	
27	   C	133.938	134.465	131.432	C.3	1	UNK0	0.026	
28	   C	133.306	133.242	131.731	C.3	1	UNK0	0.004	
29	   C	133.783	132.082	131.202	C.3	1	UNK0	0.026	
30	   C	133.168	130.860	131.521	C.3	1	UNK0	0.024	
31	   C	133.861	129.612	132.028	C.3	1	UNK0	0.024	
32	   C	132.723	128.631	132.200	C.3	1	UNK0	-0.016	
33	   C	134.872	129.092	131.005	C.3	1	UNK0	0.027	
34	   C	134.541	129.890	133.370	C.3	1	UNK0	0.027	
35	   C	131.572	129.322	131.806	C.3	1	UNK0	0.041	
36	   C	132.652	127.328	132.624	C.3	1	UNK0	0.036	
37	   C	130.339	128.656	131.852	C.3	1	UNK0	0.032	
38	   C	130.899	131.561	130.963	C.3	1	UNK0	0.156	
39	   C	130.279	127.348	132.280	C.3	1	UNK0	0.028	
40	   C	131.427	126.680	132.666	C.3	1	UNK0	0.081	
41	   C	133.467	135.648	138.723	C.3	1	UNK0	0.122	
42	   C	133.102	134.376	139.489	C.3	1	UNK0	0.020	
43	   C	134.287	133.941	140.354	C.3	1	UNK0	0.002	
44	   C	133.784	133.525	141.737	C.3	1	UNK0	0.002	
45	   C	133.995	134.674	142.724	C.3	1	UNK0	0.020	
46	   C	135.451	134.686	143.191	C.3	1	UNK0	0.125	
47	   C	136.287	132.795	144.481	C.2	1	UNK0	0.360	
48	   C	135.439	131.059	145.945	C.2	1	UNK0	0.208	
49	   C	136.186	129.769	146.289	C.3	1	UNK0	0.151	
50	   C	134.324	128.654	147.407	C.3	1	UNK0	0.672	
51	   C	136.082	129.791	148.836	C.3	1	UNK0	0.217	
52	   C	133.947	129.577	149.761	C.3	1	UNK0	0.150	
53	   C	136.936	129.972	147.591	C.3	1	UNK0	0.180	
54	   C	135.852	131.120	149.574	C.3	1	UNK0	0.209	
55	   C	138.006	128.534	149.035	C.3	1	UNK0	0.670	
56	   C	134.435	130.982	150.187	C.3	1	UNK0	0.093	
57	   O	135.618	135.598	137.099	O.2	1	UNK0	-0.274	
58	   O	128.871	141.209	130.941	O.3	1	UNK0	-0.591	
59	   O	127.938	139.468	132.333	O.3	1	UNK0	-0.591	
60	   O	129.315	141.194	133.317	O.3	1	UNK0	-0.591	
61	   O	132.608	124.393	132.874	O.3	1	UNK0	-0.591	
62	   O	131.105	125.055	134.646	O.3	1	UNK0	-0.591	
63	   O	130.222	124.403	132.493	O.3	1	UNK0	-0.591	
64	   O	136.837	132.390	143.476	O.co2	1	UNK0	-0.239	
65	   O	136.396	132.105	145.632	O.2	1	UNK0	-0.302	
66	   O	136.826	131.298	150.604	O.2	1	UNK0	-0.362	
67	   O	135.892	132.213	148.654	O.2	1	UNK0	-0.362	
68	   S	129.043	140.393	132.134	S.3	1	UNK0	0.137	
69	   S	131.334	125.007	133.210	S.3	1	UNK0	0.137	
70	   H	132.566	135.211	136.851	 H	1	UNK0	0.162	
71	   H	135.131	134.258	145.245	 H	1	UNK0	0.164	
72	   H	135.220	127.972	145.685	 H	1	UNK0	0.178	
73	   H	132.881	127.683	146.470	 H	1	UNK0	0.174	
74	   H	132.542	128.103	148.060	 H	1	UNK0	0.174	
75	   H	138.537	128.588	147.006	 H	1	UNK0	0.178	
76	   H	139.801	127.708	149.070	 H	1	UNK0	0.174	
77	   H	138.965	127.663	150.527	 H	1	UNK0	0.174	
78	   H	136.581	128.555	150.568	 H	1	UNK0	0.180	
79	   H	137.690	131.142	150.200	 H	1	UNK0	0.213	
80	   H	136.660	132.750	148.892	 H	1	UNK0	0.213	
@<TRIPOS>BOND
1 1 11 1
2 1 41 1
3 1 70 1
4 2 17 1
5 2 24 1
6 3 38 1
7 4 47 1
8 4 71 1
9 5 50 1
10 5 72 1
11 6 73 1
12 6 74 1
13 7 51 1
14 7 52 1
15 8 55 1
16 8 78 1
17 9 55 1
18 9 75 1
19 10 76 1
20 10 77 1
21 11 12 1
22 11 57 2
23 12 13 1
24 13 14 1
25 14 15 1
26 15 16 1
27 2 16 1
28 17 18 1
29 17 19 1
30 18 20 1
31 19 22 1
32 19 23 1
33 20 21 1
34 21 22 1
35 21 68 1
36 23 24 1
37 23 25 1
38 23 26 1
39 24 27 1
40 27 28 1
41 28 29 1
42 29 30 1
43 3 30 1
44 30 31 1
45 31 32 1
46 31 33 1
47 31 34 1
48 32 35 1
49 32 36 1
50 3 35 1
51 35 37 1
52 36 40 1
53 37 39 1
54 39 40 1
55 40 69 1
56 41 42 1
57 42 43 1
58 43 44 1
59 44 45 1
60 45 46 1
61 4 46 1
62 47 64 2
63 47 65 2
64 48 49 1
65 5 49 1
66 49 53 1
67 6 50 1
68 7 50 1
69 8 51 1
70 51 53 1
71 51 54 1
72 52 56 1
73 9 53 1
74 54 56 1
75 54 66 2
76 54 67 2
77 10 55 1
78 48 65 2
79 66 79 1
80 67 80 1
81 58 68 1
82 59 68 1
83 60 68 1
84 61 69 1
85 62 69 1
86 63 69 1
@<TRIPOS>SUBSTRUCTURE
1	UNK0	1	GROUP	1 ****	UNK
