MODEL 1
REMARK VINA RESULT:      -7.5      0.000      0.000
REMARK  26 active torsions:
REMARK  status: ('A' for Active; 'I' for Inactive)
REMARK    1  A    between atoms: C_6  and  C_7 
REMARK    2  A    between atoms: C_7  and  O_8 
REMARK    3  A    between atoms: O_8  and  C_9 
REMARK       I    between atoms: C_9  and  N_10 
REMARK    4  A    between atoms: N_10  and  C_11 
REMARK    5  A    between atoms: C_11  and  C_12 
REMARK    6  A    between atoms: C_12  and  C_13 
REMARK    7  A    between atoms: C_13  and  C_14 
REMARK    8  A    between atoms: C_14  and  C_15 
REMARK    9  A    between atoms: C_15  and  C_16 
REMARK   10  A    between atoms: C_16  and  N_17 
REMARK       I    between atoms: N_17  and  C_18 
REMARK   11  A    between atoms: C_18  and  C_19 
REMARK   12  A    between atoms: C_19  and  C_20 
REMARK   13  A    between atoms: C_20  and  C_21 
REMARK   14  A    between atoms: C_21  and  C_24 
REMARK   15  A    between atoms: C_24  and  C_25 
REMARK   16  A    between atoms: C_25  and  C_26 
REMARK   17  A    between atoms: C_26  and  C_27 
REMARK   18  A    between atoms: C_27  and  C_28 
REMARK   19  A    between atoms: C_28  and  N_29 
REMARK       I    between atoms: N_29  and  C_30 
REMARK   20  A    between atoms: C_30  and  C_31 
REMARK   21  A    between atoms: C_31  and  C_32 
REMARK   22  A    between atoms: C_32  and  C_33 
REMARK   23  A    between atoms: C_33  and  C_34 
REMARK   24  A    between atoms: C_34  and  C_35 
REMARK   25  A    between atoms: C_58  and  O_59 
REMARK   26  A    between atoms: C_58  and  O_60 
ROOT
ATOM      1  C           0     132.802 135.355 136.603  0.00  0.00     0.002 C 
ENDROOT
BRANCH   1   2
ATOM      2  C           0     133.225 134.692 135.290  0.00  0.00     0.002 C 
BRANCH   2   3
ATOM      3  C           0     134.620 135.184 134.897  0.00  0.00     0.020 C 
BRANCH   3   4
ATOM      4  C           0     134.726 135.249 133.372  0.00  0.00     0.125 C 
BRANCH   4   5
ATOM      5  N           0     133.747 134.338 132.774  0.00  0.00    -0.337 N 
ATOM      6  C           0     134.161 133.324 131.988  0.00  0.00     0.360 C 
ATOM      7  O           0     135.347 133.166 131.777  0.00  0.00    -0.239 OA
ATOM      8  H           0     132.801 134.464 132.944  0.00  0.00     0.164 HD
BRANCH   6   9
ATOM      9  O           0     133.261 132.487 131.439  0.00  0.00    -0.302 OA
BRANCH   9  10
ATOM     10  C           0     133.348 131.060 131.693  0.00  0.00     0.208 C 
BRANCH  10  11
ATOM     11  C           0     133.087 130.789 133.176  0.00  0.00     0.151 C 
ATOM     12  N           0     133.091 129.346 133.399  0.00  0.00    -0.218 N 
ATOM     13  C           0     132.046 128.599 132.882  0.00  0.00     0.672 C 
ATOM     14  H           0     133.807 128.920 133.896  0.00  0.00     0.178 HD
ATOM     15  N           0     132.188 127.349 132.543  0.00  0.00    -0.235 N 
ATOM     16  N           0     130.854 129.262 132.744  0.00  0.00    -0.183 N 
ATOM     17  H           0     133.047 126.912 132.649  0.00  0.00     0.174 HD
ATOM     18  H           0     131.433 126.854 132.187  0.00  0.00     0.174 HD
ATOM     19  C           0     130.544 130.612 133.215  0.00  0.00     0.217 C 
ATOM     20  C           0     129.639 128.802 132.049  0.00  0.00     0.150 C 
ATOM     21  C           0     131.773 131.436 133.567  0.00  0.00     0.180 C 
ATOM     22  C           0     129.722 131.259 132.087  0.00  0.00     0.209 C 
ATOM     23  N           0     129.750 130.570 134.453  0.00  0.00    -0.191 N 
ATOM     24  N           0     131.709 131.558 135.039  0.00  0.00    -0.216 N 
ATOM     25  C           0     130.423 131.269 135.423  0.00  0.00     0.670 C 
ATOM     26  H           0     132.443 131.798 135.625  0.00  0.00     0.178 HD
ATOM     27  N           0     129.906 131.616 136.568  0.00  0.00    -0.235 N 
ATOM     28  H           0     130.438 132.111 137.211  0.00  0.00     0.174 HD
ATOM     29  H           0     128.989 131.380 136.777  0.00  0.00     0.174 HD
ATOM     30  C           0     129.121 130.061 131.310  0.00  0.00     0.093 C 
ATOM     31  H           0     128.893 130.127 134.563  0.00  0.00     0.180 HD
BRANCH  22  32
ATOM     32  O           0     128.681 132.075 132.627  0.00  0.00    -0.362 OA
ATOM     33  H           0     129.081 132.614 133.323  0.00  0.00     0.213 HD
ENDBRANCH  22  32
BRANCH  22  34
ATOM     34  O           0     130.569 132.032 131.234  0.00  0.00    -0.362 OA
ATOM     35  H           0     131.476 131.890 131.539  0.00  0.00     0.213 HD
ENDBRANCH  22  34
ENDBRANCH  10  11
ENDBRANCH   9  10
ENDBRANCH   6   9
ENDBRANCH   4   5
ENDBRANCH   3   4
ENDBRANCH   2   3
ENDBRANCH   1   2
BRANCH   1  36
ATOM     36  C           0     133.817 135.016 137.696  0.00  0.00     0.020 C 
BRANCH  36  37
ATOM     37  C           0     133.235 135.380 139.063  0.00  0.00     0.122 C 
BRANCH  37  38
ATOM     38  N           0     133.833 134.526 140.092  0.00  0.00    -0.361 N 
ATOM     39  C           0     133.069 133.636 140.756  0.00  0.00     0.217 C 
ATOM     40  O           0     131.887 133.543 140.503  0.00  0.00    -0.274 OA
ATOM     41  H           0     134.779 134.600 140.294  0.00  0.00     0.162 HD
BRANCH  39  42
ATOM     42  C           0     133.684 132.757 141.815  0.00  0.00     0.107 C 
BRANCH  42  43
ATOM     43  C           0     135.207 132.786 141.680  0.00  0.00     0.070 C 
BRANCH  43  44
ATOM     44  C           0     135.845 132.609 143.060  0.00  0.00     0.186 A 
ATOM     45  N           0     137.305 132.644 143.167  0.00  0.00    -0.159 NA
ATOM     46  N           0     136.801 131.515 143.255  0.00  0.00    -0.159 NA
BRANCH  44  47
ATOM     47  C           0     135.010 133.074 144.255  0.00  0.00     0.061 C 
BRANCH  47  48
ATOM     48  C           0     135.206 134.577 144.461  0.00  0.00     0.004 C 
BRANCH  48  49
ATOM     49  C           0     134.011 135.146 145.228  0.00  0.00     0.002 C 
BRANCH  49  50
ATOM     50  C           0     132.904 134.092 145.303  0.00  0.00     0.020 C 
BRANCH  50  51
ATOM     51  C           0     132.062 134.325 146.559  0.00  0.00     0.122 C 
BRANCH  51  52
ATOM     52  N           0     132.886 134.965 147.588  0.00  0.00    -0.361 N 
ATOM     53  C           0     133.102 134.342 148.764  0.00  0.00     0.217 C 
ATOM     54  O           0     132.613 133.251 148.969  0.00  0.00    -0.274 OA
ATOM     55  H           0     133.277 135.837 147.423  0.00  0.00     0.162 HD
BRANCH  53  56
ATOM     56  C           0     133.949 135.000 149.822  0.00  0.00     0.103 C 
BRANCH  56  57
ATOM     57  C           0     135.258 135.486 149.198  0.00  0.00     0.009 C 
BRANCH  57  58
ATOM     58  C           0     136.318 134.388 149.314  0.00  0.00     0.002 C 
BRANCH  58  59
ATOM     59  C           0     136.526 133.734 147.947  0.00  0.00     0.017 C 
BRANCH  59  60
ATOM     60  C           0     136.266 132.230 148.056  0.00  0.00     0.072 C 
ATOM     61  S           0     137.270 131.481 149.411  0.00  0.00    -0.160 SA
ATOM     62  C           0     137.462 129.804 148.662  0.00  0.00     0.101 C 
ATOM     63  C           0     137.473 130.142 147.155  0.00  0.00     0.119 A 
ATOM     64  C           0     136.812 131.482 146.820  0.00  0.00     0.123 A 
ATOM     65  N           0     138.866 130.309 146.710  0.00  0.00    -0.336 N 
ATOM     66  N           0     137.896 132.275 146.219  0.00  0.00    -0.335 N 
ATOM     67  C           0     139.015 131.538 146.196  0.00  0.00     0.316 A 
ATOM     68  H           0     137.814 133.184 145.892  0.00  0.00     0.164 HD
ATOM     69  O           0     140.070 131.947 145.750  0.00  0.00    -0.247 OA
ATOM     70  H           0     139.563 129.638 146.778  0.00  0.00     0.164 HD
ENDBRANCH  59  60
ENDBRANCH  58  59
ENDBRANCH  57  58
ENDBRANCH  56  57
ENDBRANCH  53  56
ENDBRANCH  51  52
ENDBRANCH  50  51
ENDBRANCH  49  50
ENDBRANCH  48  49
ENDBRANCH  47  48
ENDBRANCH  44  47
ENDBRANCH  43  44
ENDBRANCH  42  43
ENDBRANCH  39  42
ENDBRANCH  37  38
ENDBRANCH  36  37
ENDBRANCH   1  36
TORSDOF 26
ENDMDL
MODEL 2
REMARK VINA RESULT:      -7.4      3.433     14.188
REMARK  26 active torsions:
REMARK  status: ('A' for Active; 'I' for Inactive)
REMARK    1  A    between atoms: C_6  and  C_7 
REMARK    2  A    between atoms: C_7  and  O_8 
REMARK    3  A    between atoms: O_8  and  C_9 
REMARK       I    between atoms: C_9  and  N_10 
REMARK    4  A    between atoms: N_10  and  C_11 
REMARK    5  A    between atoms: C_11  and  C_12 
REMARK    6  A    between atoms: C_12  and  C_13 
REMARK    7  A    between atoms: C_13  and  C_14 
REMARK    8  A    between atoms: C_14  and  C_15 
REMARK    9  A    between atoms: C_15  and  C_16 
REMARK   10  A    between atoms: C_16  and  N_17 
REMARK       I    between atoms: N_17  and  C_18 
REMARK   11  A    between atoms: C_18  and  C_19 
REMARK   12  A    between atoms: C_19  and  C_20 
REMARK   13  A    between atoms: C_20  and  C_21 
REMARK   14  A    between atoms: C_21  and  C_24 
REMARK   15  A    between atoms: C_24  and  C_25 
REMARK   16  A    between atoms: C_25  and  C_26 
REMARK   17  A    between atoms: C_26  and  C_27 
REMARK   18  A    between atoms: C_27  and  C_28 
REMARK   19  A    between atoms: C_28  and  N_29 
REMARK       I    between atoms: N_29  and  C_30 
REMARK   20  A    between atoms: C_30  and  C_31 
REMARK   21  A    between atoms: C_31  and  C_32 
REMARK   22  A    between atoms: C_32  and  C_33 
REMARK   23  A    between atoms: C_33  and  C_34 
REMARK   24  A    between atoms: C_34  and  C_35 
REMARK   25  A    between atoms: C_58  and  O_59 
REMARK   26  A    between atoms: C_58  and  O_60 
ROOT
ATOM      1  C           0     133.539 133.806 141.635  0.00  0.00     0.002 C 
ENDROOT
BRANCH   1   2
ATOM      2  C           0     134.905 133.125 141.530  0.00  0.00     0.002 C 
BRANCH   2   3
ATOM      3  C           0     135.849 133.710 142.582  0.00  0.00     0.020 C 
BRANCH   3   4
ATOM      4  C           0     135.125 134.807 143.364  0.00  0.00     0.125 C 
BRANCH   4   5
ATOM      5  N           0     135.340 134.607 144.800  0.00  0.00    -0.337 N 
ATOM      6  C           0     134.341 134.135 145.572  0.00  0.00     0.360 C 
ATOM      7  O           0     133.262 133.875 145.077  0.00  0.00    -0.239 OA
ATOM      8  H           0     136.201 134.815 145.194  0.00  0.00     0.164 HD
BRANCH   6   9
ATOM      9  O           0     134.539 133.951 146.890  0.00  0.00    -0.302 OA
BRANCH   9  10
ATOM     10  C           0     134.728 132.611 147.416  0.00  0.00     0.208 C 
BRANCH  10  11
ATOM     11  C           0     135.731 131.856 146.541  0.00  0.00     0.151 C 
ATOM     12  N           0     135.136 130.588 146.129  0.00  0.00    -0.218 N 
ATOM     13  C           0     134.948 129.610 147.090  0.00  0.00     0.672 C 
ATOM     14  H           0     134.879 130.434 145.207  0.00  0.00     0.178 HD
ATOM     15  N           0     134.000 128.721 146.999  0.00  0.00    -0.235 N 
ATOM     16  N           0     135.822 129.640 148.147  0.00  0.00    -0.183 N 
ATOM     17  H           0     133.396 128.731 146.240  0.00  0.00     0.174 HD
ATOM     18  H           0     133.899 128.046 147.690  0.00  0.00     0.174 HD
ATOM     19  C           0     136.999 130.498 148.284  0.00  0.00     0.217 C 
ATOM     20  C           0     135.750 128.870 149.402  0.00  0.00     0.150 C 
ATOM     21  C           0     137.018 131.673 147.319  0.00  0.00     0.180 C 
ATOM     22  C           0     136.999 130.959 149.752  0.00  0.00     0.209 C 
ATOM     23  N           0     138.233 129.750 147.995  0.00  0.00    -0.191 N 
ATOM     24  N           0     138.112 131.344 146.381  0.00  0.00    -0.216 N 
ATOM     25  C           0     138.898 130.389 146.979  0.00  0.00     0.670 C 
ATOM     26  H           0     138.249 131.732 145.503  0.00  0.00     0.178 HD
ATOM     27  N           0     140.124 130.125 146.625  0.00  0.00    -0.235 N 
ATOM     28  H           0     140.536 130.616 145.897  0.00  0.00     0.174 HD
ATOM     29  H           0     140.625 129.437 147.091  0.00  0.00     0.174 HD
ATOM     30  C           0     136.169 129.882 150.496  0.00  0.00     0.093 C 
ATOM     31  H           0     138.528 128.944 148.448  0.00  0.00     0.180 HD
BRANCH  22  32
ATOM     32  O           0     138.331 131.004 150.266  0.00  0.00    -0.362 OA
ATOM     33  H           0     138.277 131.390 151.150  0.00  0.00     0.213 HD
ENDBRANCH  22  32
BRANCH  22  34
ATOM     34  O           0     136.374 132.239 149.871  0.00  0.00    -0.362 OA
ATOM     35  H           0     136.163 132.361 150.807  0.00  0.00     0.213 HD
ENDBRANCH  22  34
ENDBRANCH  10  11
ENDBRANCH   9  10
ENDBRANCH   6   9
ENDBRANCH   4   5
ENDBRANCH   3   4
ENDBRANCH   2   3
ENDBRANCH   1   2
BRANCH   1  36
ATOM     36  C           0     132.894 133.875 140.249  0.00  0.00     0.020 C 
BRANCH  36  37
ATOM     37  C           0     133.336 135.159 139.544  0.00  0.00     0.122 C 
BRANCH  37  38
ATOM     38  N           0     132.500 135.379 138.362  0.00  0.00    -0.361 N 
ATOM     39  C           0     133.021 135.217 137.130  0.00  0.00     0.217 C 
ATOM     40  O           0     134.182 134.891 136.999  0.00  0.00    -0.274 OA
ATOM     41  H           0     131.571 135.639 138.466  0.00  0.00     0.162 HD
BRANCH  39  42
ATOM     42  C           0     132.162 135.443 135.912  0.00  0.00     0.107 C 
BRANCH  42  43
ATOM     43  C           0     131.630 134.101 135.408  0.00  0.00     0.070 C 
BRANCH  43  44
ATOM     44  C           0     132.439 133.658 134.187  0.00  0.00     0.186 A 
ATOM     45  N           0     132.116 132.375 133.559  0.00  0.00    -0.159 NA
ATOM     46  N           0     133.149 132.377 134.244  0.00  0.00    -0.159 NA
BRANCH  44  47
ATOM     47  C           0     133.016 134.777 133.316  0.00  0.00     0.061 C 
BRANCH  47  48
ATOM     48  C           0     132.120 134.984 132.094  0.00  0.00     0.004 C 
BRANCH  48  49
ATOM     49  C           0     130.981 135.940 132.455  0.00  0.00     0.002 C 
BRANCH  49  50
ATOM     50  C           0     129.681 135.448 131.816  0.00  0.00     0.020 C 
BRANCH  50  51
ATOM     51  C           0     128.899 134.611 132.830  0.00  0.00     0.122 C 
BRANCH  51  52
ATOM     52  N           0     129.205 133.193 132.634  0.00  0.00    -0.361 N 
ATOM     53  C           0     128.435 132.443 131.820  0.00  0.00     0.217 C 
ATOM     54  O           0     127.489 132.944 131.250  0.00  0.00    -0.274 OA
ATOM     55  H           0     129.962 132.792 133.090  0.00  0.00     0.162 HD
BRANCH  53  56
ATOM     56  C           0     128.750 130.983 131.618  0.00  0.00     0.103 C 
BRANCH  56  57
ATOM     57  C           0     129.065 130.337 132.969  0.00  0.00     0.009 C 
BRANCH  57  58
ATOM     58  C           0     129.918 129.086 132.749  0.00  0.00     0.002 C 
BRANCH  58  59
ATOM     59  C           0     131.069 129.415 131.796  0.00  0.00     0.017 C 
BRANCH  59  60
ATOM     60  C           0     131.838 128.134 131.463  0.00  0.00     0.072 C 
ATOM     61  S           0     131.558 126.841 132.750  0.00  0.00    -0.160 SA
ATOM     62  C           0     133.192 125.996 132.594  0.00  0.00     0.101 C 
ATOM     63  C           0     134.109 127.175 132.204  0.00  0.00     0.119 A 
ATOM     64  C           0     133.361 128.356 131.578  0.00  0.00     0.123 A 
ATOM     65  N           0     134.714 127.738 133.422  0.00  0.00    -0.336 N 
ATOM     66  N           0     133.616 129.471 132.505  0.00  0.00    -0.335 N 
ATOM     67  C           0     134.384 129.035 133.512  0.00  0.00     0.316 A 
ATOM     68  H           0     133.281 130.375 132.403  0.00  0.00     0.164 HD
ATOM     69  O           0     134.750 129.749 134.426  0.00  0.00    -0.247 OA
ATOM     70  H           0     135.261 127.250 134.056  0.00  0.00     0.164 HD
ENDBRANCH  59  60
ENDBRANCH  58  59
ENDBRANCH  57  58
ENDBRANCH  56  57
ENDBRANCH  53  56
ENDBRANCH  51  52
ENDBRANCH  50  51
ENDBRANCH  49  50
ENDBRANCH  48  49
ENDBRANCH  47  48
ENDBRANCH  44  47
ENDBRANCH  43  44
ENDBRANCH  42  43
ENDBRANCH  39  42
ENDBRANCH  37  38
ENDBRANCH  36  37
ENDBRANCH   1  36
TORSDOF 26
ENDMDL
MODEL 3
REMARK VINA RESULT:      -7.3      3.521     14.170
REMARK  26 active torsions:
REMARK  status: ('A' for Active; 'I' for Inactive)
REMARK    1  A    between atoms: C_6  and  C_7 
REMARK    2  A    between atoms: C_7  and  O_8 
REMARK    3  A    between atoms: O_8  and  C_9 
REMARK       I    between atoms: C_9  and  N_10 
REMARK    4  A    between atoms: N_10  and  C_11 
REMARK    5  A    between atoms: C_11  and  C_12 
REMARK    6  A    between atoms: C_12  and  C_13 
REMARK    7  A    between atoms: C_13  and  C_14 
REMARK    8  A    between atoms: C_14  and  C_15 
REMARK    9  A    between atoms: C_15  and  C_16 
REMARK   10  A    between atoms: C_16  and  N_17 
REMARK       I    between atoms: N_17  and  C_18 
REMARK   11  A    between atoms: C_18  and  C_19 
REMARK   12  A    between atoms: C_19  and  C_20 
REMARK   13  A    between atoms: C_20  and  C_21 
REMARK   14  A    between atoms: C_21  and  C_24 
REMARK   15  A    between atoms: C_24  and  C_25 
REMARK   16  A    between atoms: C_25  and  C_26 
REMARK   17  A    between atoms: C_26  and  C_27 
REMARK   18  A    between atoms: C_27  and  C_28 
REMARK   19  A    between atoms: C_28  and  N_29 
REMARK       I    between atoms: N_29  and  C_30 
REMARK   20  A    between atoms: C_30  and  C_31 
REMARK   21  A    between atoms: C_31  and  C_32 
REMARK   22  A    between atoms: C_32  and  C_33 
REMARK   23  A    between atoms: C_33  and  C_34 
REMARK   24  A    between atoms: C_34  and  C_35 
REMARK   25  A    between atoms: C_58  and  O_59 
REMARK   26  A    between atoms: C_58  and  O_60 
ROOT
ATOM      1  C           0     133.659 134.135 141.591  0.00  0.00     0.002 C 
ENDROOT
BRANCH   1   2
ATOM      2  C           0     134.822 133.141 141.605  0.00  0.00     0.002 C 
BRANCH   2   3
ATOM      3  C           0     134.485 131.974 142.536  0.00  0.00     0.020 C 
BRANCH   3   4
ATOM      4  C           0     135.779 131.297 142.994  0.00  0.00     0.125 C 
BRANCH   4   5
ATOM      5  N           0     136.243 131.920 144.236  0.00  0.00    -0.337 N 
ATOM      6  C           0     137.440 132.539 144.273  0.00  0.00     0.360 C 
ATOM      7  O           0     138.133 132.580 143.276  0.00  0.00    -0.239 OA
ATOM      8  H           0     135.690 131.887 145.032  0.00  0.00     0.164 HD
BRANCH   6   9
ATOM      9  O           0     137.867 133.111 145.414  0.00  0.00    -0.302 OA
BRANCH   9  10
ATOM     10  C           0     137.801 132.375 146.664  0.00  0.00     0.208 C 
BRANCH  10  11
ATOM     11  C           0     136.744 133.007 147.573  0.00  0.00     0.151 C 
ATOM     12  N           0     137.278 133.093 148.929  0.00  0.00    -0.218 N 
ATOM     13  C           0     137.460 131.918 149.637  0.00  0.00     0.672 C 
ATOM     14  H           0     137.500 133.950 149.324  0.00  0.00     0.178 HD
ATOM     15  N           0     138.372 131.798 150.561  0.00  0.00    -0.235 N 
ATOM     16  N           0     136.622 130.886 149.301  0.00  0.00    -0.183 N 
ATOM     17  H           0     138.951 132.547 150.771  0.00  0.00     0.174 HD
ATOM     18  H           0     138.469 130.961 151.041  0.00  0.00     0.174 HD
ATOM     19  C           0     135.482 130.948 148.385  0.00  0.00     0.217 C 
ATOM     20  C           0     136.705 129.478 149.727  0.00  0.00     0.150 C 
ATOM     21  C           0     135.476 132.181 147.495  0.00  0.00     0.180 C 
ATOM     22  C           0     135.546 129.647 147.566  0.00  0.00     0.209 C 
ATOM     23  N           0     134.213 131.010 149.128  0.00  0.00    -0.191 N 
ATOM     24  N           0     134.341 132.980 148.004  0.00  0.00    -0.216 N 
ATOM     25  C           0     133.540 132.141 148.739  0.00  0.00     0.670 C 
ATOM     26  H           0     134.191 133.925 147.847  0.00  0.00     0.178 HD
ATOM     27  N           0     132.295 132.390 149.031  0.00  0.00    -0.235 N 
ATOM     28  H           0     131.878 133.210 148.725  0.00  0.00     0.174 HD
ATOM     29  H           0     131.784 131.753 149.555  0.00  0.00     0.174 HD
ATOM     30  C           0     136.358 128.670 148.453  0.00  0.00     0.093 C 
ATOM     31  H           0     133.903 130.360 149.778  0.00  0.00     0.180 HD
BRANCH  22  32
ATOM     32  O           0     134.233 129.134 147.333  0.00  0.00    -0.362 OA
ATOM     33  H           0     133.612 129.830 147.588  0.00  0.00     0.213 HD
ENDBRANCH  22  32
BRANCH  22  34
ATOM     34  O           0     136.221 129.873 146.326  0.00  0.00    -0.362 OA
ATOM     35  H           0     136.542 129.013 146.023  0.00  0.00     0.213 HD
ENDBRANCH  22  34
ENDBRANCH  10  11
ENDBRANCH   9  10
ENDBRANCH   6   9
ENDBRANCH   4   5
ENDBRANCH   3   4
ENDBRANCH   2   3
ENDBRANCH   1   2
BRANCH   1  36
ATOM     36  C           0     132.939 134.058 140.243  0.00  0.00     0.020 C 
BRANCH  36  37
ATOM     37  C           0     133.489 135.138 139.309  0.00  0.00     0.122 C 
BRANCH  37  38
ATOM     38  N           0     132.581 135.308 138.172  0.00  0.00    -0.361 N 
ATOM     39  C           0     133.054 135.215 136.913  0.00  0.00     0.217 C 
ATOM     40  O           0     134.230 134.990 136.722  0.00  0.00    -0.274 OA
ATOM     41  H           0     131.640 135.488 138.325  0.00  0.00     0.162 HD
BRANCH  39  42
ATOM     42  C           0     132.120 135.390 135.743  0.00  0.00     0.107 C 
BRANCH  42  43
ATOM     43  C           0     132.103 134.109 134.908  0.00  0.00     0.070 C 
BRANCH  43  44
ATOM     44  C           0     132.717 134.388 133.534  0.00  0.00     0.186 A 
ATOM     45  N           0     132.534 133.398 132.470  0.00  0.00    -0.159 NA
ATOM     46  N           0     133.664 133.417 132.979  0.00  0.00    -0.159 NA
BRANCH  44  47
ATOM     47  C           0     132.867 135.861 133.147  0.00  0.00     0.061 C 
BRANCH  47  48
ATOM     48  C           0     131.867 136.202 132.041  0.00  0.00     0.004 C 
BRANCH  48  49
ATOM     49  C           0     130.542 136.638 132.669  0.00  0.00     0.002 C 
BRANCH  49  50
ATOM     50  C           0     129.402 135.797 132.090  0.00  0.00     0.020 C 
BRANCH  50  51
ATOM     51  C           0     128.965 134.752 133.118  0.00  0.00     0.122 C 
BRANCH  51  52
ATOM     52  N           0     129.288 133.413 132.622  0.00  0.00    -0.361 N 
ATOM     53  C           0     128.339 132.669 132.021  0.00  0.00     0.217 C 
ATOM     54  O           0     127.216 133.109 131.891  0.00  0.00    -0.274 OA
ATOM     55  H           0     130.186 133.060 132.726  0.00  0.00     0.162 HD
BRANCH  53  56
ATOM     56  C           0     128.671 131.290 131.511  0.00  0.00     0.103 C 
BRANCH  56  57
ATOM     57  C           0     129.101 130.403 132.680  0.00  0.00     0.009 C 
BRANCH  57  58
ATOM     58  C           0     129.989 129.270 132.162  0.00  0.00     0.002 C 
BRANCH  58  59
ATOM     59  C           0     131.059 129.846 131.232  0.00  0.00     0.017 C 
BRANCH  59  60
ATOM     60  C           0     132.143 128.793 130.988  0.00  0.00     0.072 C 
ATOM     61  S           0     131.863 127.300 132.035  0.00  0.00    -0.160 SA
ATOM     62  C           0     133.632 126.808 132.221  0.00  0.00     0.101 C 
ATOM     63  C           0     134.336 128.182 132.190  0.00  0.00     0.119 A 
ATOM     64  C           0     133.513 129.279 131.507  0.00  0.00     0.123 A 
ATOM     65  N           0     134.507 128.668 133.568  0.00  0.00    -0.336 N 
ATOM     66  N           0     133.299 130.277 132.568  0.00  0.00    -0.335 N 
ATOM     67  C           0     133.892 129.853 133.692  0.00  0.00     0.316 A 
ATOM     68  H           0     132.809 131.107 132.469  0.00  0.00     0.164 HD
ATOM     69  O           0     133.874 130.485 134.731  0.00  0.00    -0.247 OA
ATOM     70  H           0     134.986 128.205 134.272  0.00  0.00     0.164 HD
ENDBRANCH  59  60
ENDBRANCH  58  59
ENDBRANCH  57  58
ENDBRANCH  56  57
ENDBRANCH  53  56
ENDBRANCH  51  52
ENDBRANCH  50  51
ENDBRANCH  49  50
ENDBRANCH  48  49
ENDBRANCH  47  48
ENDBRANCH  44  47
ENDBRANCH  43  44
ENDBRANCH  42  43
ENDBRANCH  39  42
ENDBRANCH  37  38
ENDBRANCH  36  37
ENDBRANCH   1  36
TORSDOF 26
ENDMDL
MODEL 4
REMARK VINA RESULT:      -7.2      3.442     14.296
REMARK  26 active torsions:
REMARK  status: ('A' for Active; 'I' for Inactive)
REMARK    1  A    between atoms: C_6  and  C_7 
REMARK    2  A    between atoms: C_7  and  O_8 
REMARK    3  A    between atoms: O_8  and  C_9 
REMARK       I    between atoms: C_9  and  N_10 
REMARK    4  A    between atoms: N_10  and  C_11 
REMARK    5  A    between atoms: C_11  and  C_12 
REMARK    6  A    between atoms: C_12  and  C_13 
REMARK    7  A    between atoms: C_13  and  C_14 
REMARK    8  A    between atoms: C_14  and  C_15 
REMARK    9  A    between atoms: C_15  and  C_16 
REMARK   10  A    between atoms: C_16  and  N_17 
REMARK       I    between atoms: N_17  and  C_18 
REMARK   11  A    between atoms: C_18  and  C_19 
REMARK   12  A    between atoms: C_19  and  C_20 
REMARK   13  A    between atoms: C_20  and  C_21 
REMARK   14  A    between atoms: C_21  and  C_24 
REMARK   15  A    between atoms: C_24  and  C_25 
REMARK   16  A    between atoms: C_25  and  C_26 
REMARK   17  A    between atoms: C_26  and  C_27 
REMARK   18  A    between atoms: C_27  and  C_28 
REMARK   19  A    between atoms: C_28  and  N_29 
REMARK       I    between atoms: N_29  and  C_30 
REMARK   20  A    between atoms: C_30  and  C_31 
REMARK   21  A    between atoms: C_31  and  C_32 
REMARK   22  A    between atoms: C_32  and  C_33 
REMARK   23  A    between atoms: C_33  and  C_34 
REMARK   24  A    between atoms: C_34  and  C_35 
REMARK   25  A    between atoms: C_58  and  O_59 
REMARK   26  A    between atoms: C_58  and  O_60 
ROOT
ATOM      1  C           0     133.695 133.816 141.486  0.00  0.00     0.002 C 
ENDROOT
BRANCH   1   2
ATOM      2  C           0     135.030 133.131 141.190  0.00  0.00     0.002 C 
BRANCH   2   3
ATOM      3  C           0     135.507 132.381 142.435  0.00  0.00     0.020 C 
BRANCH   3   4
ATOM      4  C           0     136.878 132.912 142.857  0.00  0.00     0.125 C 
BRANCH   4   5
ATOM      5  N           0     136.822 133.354 144.253  0.00  0.00    -0.337 N 
ATOM      6  C           0     137.666 132.825 145.162  0.00  0.00     0.360 C 
ATOM      7  O           0     138.473 131.983 144.823  0.00  0.00    -0.239 OA
ATOM      8  H           0     136.178 134.026 144.523  0.00  0.00     0.164 HD
BRANCH   6   9
ATOM      9  O           0     137.614 133.231 146.444  0.00  0.00    -0.302 OA
BRANCH   9  10
ATOM     10  C           0     136.668 132.621 147.361  0.00  0.00     0.208 C 
BRANCH  10  11
ATOM     11  C           0     136.688 133.377 148.692  0.00  0.00     0.151 C 
ATOM     12  N           0     136.036 132.558 149.709  0.00  0.00    -0.218 N 
ATOM     13  C           0     134.668 132.365 149.620  0.00  0.00     0.672 C 
ATOM     14  H           0     136.548 132.158 150.430  0.00  0.00     0.178 HD
ATOM     15  N           0     134.086 131.296 150.085  0.00  0.00    -0.235 N 
ATOM     16  N           0     133.966 133.369 149.005  0.00  0.00    -0.183 N 
ATOM     17  H           0     134.613 130.602 150.510  0.00  0.00     0.174 HD
ATOM     18  H           0     133.124 131.195 150.009  0.00  0.00     0.174 HD
ATOM     19  C           0     134.491 134.665 148.571  0.00  0.00     0.217 C 
ATOM     20  C           0     132.553 133.360 148.587  0.00  0.00     0.150 C 
ATOM     21  C           0     136.010 134.719 148.500  0.00  0.00     0.180 C 
ATOM     22  C           0     133.842 134.930 147.201  0.00  0.00     0.209 C 
ATOM     23  N           0     134.117 135.728 149.517  0.00  0.00    -0.191 N 
ATOM     24  N           0     136.384 135.617 149.613  0.00  0.00    -0.216 N 
ATOM     25  C           0     135.265 136.333 149.963  0.00  0.00     0.670 C 
ATOM     26  H           0     137.261 135.687 150.022  0.00  0.00     0.178 HD
ATOM     27  N           0     135.292 137.449 150.635  0.00  0.00    -0.235 N 
ATOM     28  H           0     136.140 137.823 150.922  0.00  0.00     0.174 HD
ATOM     29  H           0     134.463 137.906 150.849  0.00  0.00     0.174 HD
ATOM     30  C           0     132.557 134.064 147.208  0.00  0.00     0.093 C 
ATOM     31  H           0     133.213 135.965 149.777  0.00  0.00     0.180 HD
BRANCH  22  32
ATOM     32  O           0     133.512 136.313 147.061  0.00  0.00    -0.362 OA
ATOM     33  H           0     132.850 136.512 147.737  0.00  0.00     0.213 HD
ENDBRANCH  22  32
BRANCH  22  34
ATOM     34  O           0     134.716 134.516 146.148  0.00  0.00    -0.362 OA
ATOM     35  H           0     135.501 135.078 146.201  0.00  0.00     0.213 HD
ENDBRANCH  22  34
ENDBRANCH  10  11
ENDBRANCH   9  10
ENDBRANCH   6   9
ENDBRANCH   4   5
ENDBRANCH   3   4
ENDBRANCH   2   3
ENDBRANCH   1   2
BRANCH   1  36
ATOM     36  C           0     132.884 133.935 140.194  0.00  0.00     0.020 C 
BRANCH  36  37
ATOM     37  C           0     133.368 135.148 139.398  0.00  0.00     0.122 C 
BRANCH  37  38
ATOM     38  N           0     132.516 135.331 138.221  0.00  0.00    -0.361 N 
ATOM     39  C           0     133.025 135.149 136.986  0.00  0.00     0.217 C 
ATOM     40  O           0     134.188 134.833 136.850  0.00  0.00    -0.274 OA
ATOM     41  H           0     131.585 135.583 138.330  0.00  0.00     0.162 HD
BRANCH  39  42
ATOM     42  C           0     132.148 135.337 135.774  0.00  0.00     0.107 C 
BRANCH  42  43
ATOM     43  C           0     132.058 134.020 135.001  0.00  0.00     0.070 C 
BRANCH  43  44
ATOM     44  C           0     132.651 134.209 133.603  0.00  0.00     0.186 A 
ATOM     45  N           0     132.388 133.188 132.586  0.00  0.00    -0.159 NA
ATOM     46  N           0     133.530 133.166 133.067  0.00  0.00    -0.159 NA
BRANCH  44  47
ATOM     47  C           0     132.872 135.655 133.151  0.00  0.00     0.061 C 
BRANCH  47  48
ATOM     48  C           0     131.948 135.967 131.973  0.00  0.00     0.004 C 
BRANCH  48  49
ATOM     49  C           0     130.579 136.402 132.500  0.00  0.00     0.002 C 
BRANCH  49  50
ATOM     50  C           0     129.490 135.534 131.867  0.00  0.00     0.020 C 
BRANCH  50  51
ATOM     51  C           0     128.910 134.593 132.925  0.00  0.00     0.122 C 
BRANCH  51  52
ATOM     52  N           0     129.245 133.209 132.584  0.00  0.00    -0.361 N 
ATOM     53  C           0     128.409 132.481 131.816  0.00  0.00     0.217 C 
ATOM     54  O           0     127.379 132.974 131.407  0.00  0.00    -0.274 OA
ATOM     55  H           0     130.068 132.814 132.912  0.00  0.00     0.162 HD
BRANCH  53  56
ATOM     56  C           0     128.754 131.057 131.466  0.00  0.00     0.103 C 
BRANCH  56  57
ATOM     57  C           0     129.073 130.279 132.744  0.00  0.00     0.009 C 
BRANCH  57  58
ATOM     58  C           0     130.102 129.190 132.436  0.00  0.00     0.002 C 
BRANCH  58  59
ATOM     59  C           0     131.131 129.728 131.439  0.00  0.00     0.017 C 
BRANCH  59  60
ATOM     60  C           0     132.166 128.642 131.138  0.00  0.00     0.072 C 
ATOM     61  S           0     131.910 127.167 132.218  0.00  0.00    -0.160 SA
ATOM     62  C           0     133.673 126.625 132.297  0.00  0.00     0.101 C 
ATOM     63  C           0     134.413 127.978 132.206  0.00  0.00     0.119 A 
ATOM     64  C           0     133.580 129.092 131.564  0.00  0.00     0.123 A 
ATOM     65  N           0     134.685 128.471 133.565  0.00  0.00    -0.336 N 
ATOM     66  N           0     133.463 130.106 132.625  0.00  0.00    -0.335 N 
ATOM     67  C           0     134.114 129.674 133.715  0.00  0.00     0.316 A 
ATOM     68  H           0     132.991 130.949 132.549  0.00  0.00     0.164 HD
ATOM     69  O           0     134.180 130.316 134.746  0.00  0.00    -0.247 OA
ATOM     70  H           0     135.195 128.001 134.243  0.00  0.00     0.164 HD
ENDBRANCH  59  60
ENDBRANCH  58  59
ENDBRANCH  57  58
ENDBRANCH  56  57
ENDBRANCH  53  56
ENDBRANCH  51  52
ENDBRANCH  50  51
ENDBRANCH  49  50
ENDBRANCH  48  49
ENDBRANCH  47  48
ENDBRANCH  44  47
ENDBRANCH  43  44
ENDBRANCH  42  43
ENDBRANCH  39  42
ENDBRANCH  37  38
ENDBRANCH  36  37
ENDBRANCH   1  36
TORSDOF 26
ENDMDL
MODEL 5
REMARK VINA RESULT:      -7.2      2.809      5.579
REMARK  26 active torsions:
REMARK  status: ('A' for Active; 'I' for Inactive)
REMARK    1  A    between atoms: C_6  and  C_7 
REMARK    2  A    between atoms: C_7  and  O_8 
REMARK    3  A    between atoms: O_8  and  C_9 
REMARK       I    between atoms: C_9  and  N_10 
REMARK    4  A    between atoms: N_10  and  C_11 
REMARK    5  A    between atoms: C_11  and  C_12 
REMARK    6  A    between atoms: C_12  and  C_13 
REMARK    7  A    between atoms: C_13  and  C_14 
REMARK    8  A    between atoms: C_14  and  C_15 
REMARK    9  A    between atoms: C_15  and  C_16 
REMARK   10  A    between atoms: C_16  and  N_17 
REMARK       I    between atoms: N_17  and  C_18 
REMARK   11  A    between atoms: C_18  and  C_19 
REMARK   12  A    between atoms: C_19  and  C_20 
REMARK   13  A    between atoms: C_20  and  C_21 
REMARK   14  A    between atoms: C_21  and  C_24 
REMARK   15  A    between atoms: C_24  and  C_25 
REMARK   16  A    between atoms: C_25  and  C_26 
REMARK   17  A    between atoms: C_26  and  C_27 
REMARK   18  A    between atoms: C_27  and  C_28 
REMARK   19  A    between atoms: C_28  and  N_29 
REMARK       I    between atoms: N_29  and  C_30 
REMARK   20  A    between atoms: C_30  and  C_31 
REMARK   21  A    between atoms: C_31  and  C_32 
REMARK   22  A    between atoms: C_32  and  C_33 
REMARK   23  A    between atoms: C_33  and  C_34 
REMARK   24  A    between atoms: C_34  and  C_35 
REMARK   25  A    between atoms: C_58  and  O_59 
REMARK   26  A    between atoms: C_58  and  O_60 
ROOT
ATOM      1  C           0     133.368 133.496 141.372  0.00  0.00     0.002 C 
ENDROOT
BRANCH   1   2
ATOM      2  C           0     132.083 133.162 140.611  0.00  0.00     0.002 C 
BRANCH   2   3
ATOM      3  C           0     132.087 133.883 139.261  0.00  0.00     0.020 C 
BRANCH   3   4
ATOM      4  C           0     133.233 134.896 139.227  0.00  0.00     0.125 C 
BRANCH   4   5
ATOM      5  N           0     133.313 135.500 137.895  0.00  0.00    -0.337 N 
ATOM      6  C           0     134.410 135.314 137.135  0.00  0.00     0.360 C 
ATOM      7  O           0     135.333 134.645 137.554  0.00  0.00    -0.239 OA
ATOM      8  H           0     132.576 136.034 137.560  0.00  0.00     0.164 HD
BRANCH   6   9
ATOM      9  O           0     134.483 135.870 135.911  0.00  0.00    -0.302 OA
BRANCH   9  10
ATOM     10  C           0     133.661 135.355 134.830  0.00  0.00     0.208 C 
BRANCH  10  11
ATOM     11  C           0     134.489 134.396 133.971  0.00  0.00     0.151 C 
ATOM     12  N           0     134.216 134.668 132.563  0.00  0.00    -0.218 N 
ATOM     13  C           0     132.967 134.343 132.062  0.00  0.00     0.672 C 
ATOM     14  H           0     134.891 135.068 131.993  0.00  0.00     0.178 HD
ATOM     15  N           0     132.432 134.985 131.062  0.00  0.00    -0.235 N 
ATOM     16  N           0     132.328 133.306 132.689  0.00  0.00    -0.183 N 
ATOM     17  H           0     132.910 135.718 130.644  0.00  0.00     0.174 HD
ATOM     18  H           0     131.556 134.728 130.734  0.00  0.00     0.174 HD
ATOM     19  C           0     132.885 132.431 133.723  0.00  0.00     0.217 C 
ATOM     20  C           0     130.931 132.868 132.519  0.00  0.00     0.150 C 
ATOM     21  C           0     134.151 132.972 134.367  0.00  0.00     0.180 C 
ATOM     22  C           0     131.754 132.241 134.749  0.00  0.00     0.209 C 
ATOM     23  N           0     133.273 131.129 133.158  0.00  0.00    -0.191 N 
ATOM     24  N           0     135.213 132.066 133.878  0.00  0.00    -0.216 N 
ATOM     25  C           0     134.604 130.923 133.421  0.00  0.00     0.670 C 
ATOM     26  H           0     136.165 132.248 133.879  0.00  0.00     0.178 HD
ATOM     27  N           0     135.215 129.784 133.258  0.00  0.00    -0.235 N 
ATOM     28  H           0     136.160 129.707 133.463  0.00  0.00     0.174 HD
ATOM     29  H           0     134.725 129.014 132.931  0.00  0.00     0.174 HD
ATOM     30  C           0     130.456 132.532 133.953  0.00  0.00     0.093 C 
ATOM     31  H           0     132.686 130.518 132.684  0.00  0.00     0.180 HD
BRANCH  22  32
ATOM     32  O           0     131.745 130.901 135.245  0.00  0.00    -0.362 OA
ATOM     33  H           0     131.317 130.927 136.111  0.00  0.00     0.213 HD
ENDBRANCH  22  32
BRANCH  22  34
ATOM     34  O           0     131.897 133.170 135.825  0.00  0.00    -0.362 OA
ATOM     35  H           0     131.392 132.816 136.569  0.00  0.00     0.213 HD
ENDBRANCH  22  34
ENDBRANCH  10  11
ENDBRANCH   9  10
ENDBRANCH   6   9
ENDBRANCH   4   5
ENDBRANCH   3   4
ENDBRANCH   2   3
ENDBRANCH   1   2
BRANCH   1  36
ATOM     36  C           0     133.882 132.240 142.079  0.00  0.00     0.020 C 
BRANCH  36  37
ATOM     37  C           0     134.730 132.646 143.286  0.00  0.00     0.122 C 
BRANCH  37  38
ATOM     38  N           0     133.862 132.839 144.449  0.00  0.00    -0.361 N 
ATOM     39  C           0     133.671 134.076 144.949  0.00  0.00     0.217 C 
ATOM     40  O           0     134.219 135.029 144.436  0.00  0.00    -0.274 OA
ATOM     41  H           0     133.423 132.077 144.859  0.00  0.00     0.162 HD
BRANCH  39  42
ATOM     42  C           0     132.777 134.276 146.146  0.00  0.00     0.107 C 
BRANCH  42  43
ATOM     43  C           0     133.587 134.886 147.291  0.00  0.00     0.070 C 
BRANCH  43  44
ATOM     44  C           0     133.640 133.901 148.460  0.00  0.00     0.186 A 
ATOM     45  N           0     132.416 133.189 148.834  0.00  0.00    -0.159 NA
ATOM     46  N           0     132.740 134.111 149.597  0.00  0.00    -0.159 NA
BRANCH  44  47
ATOM     47  C           0     134.989 133.221 148.711  0.00  0.00     0.061 C 
BRANCH  47  48
ATOM     48  C           0     136.029 133.778 147.738  0.00  0.00     0.004 C 
BRANCH  48  49
ATOM     49  C           0     136.555 132.647 146.852  0.00  0.00     0.002 C 
BRANCH  49  50
ATOM     50  C           0     137.352 133.239 145.688  0.00  0.00     0.020 C 
BRANCH  50  51
ATOM     51  C           0     138.324 132.188 145.148  0.00  0.00     0.122 C 
BRANCH  51  52
ATOM     52  N           0     138.424 131.080 146.101  0.00  0.00    -0.361 N 
ATOM     53  C           0     139.576 130.864 146.767  0.00  0.00     0.217 C 
ATOM     54  O           0     140.530 131.589 146.577  0.00  0.00    -0.274 OA
ATOM     55  H           0     137.661 130.501 146.253  0.00  0.00     0.162 HD
BRANCH  53  56
ATOM     56  C           0     139.678 129.724 147.747  0.00  0.00     0.103 C 
BRANCH  56  57
ATOM     57  C           0     138.458 129.732 148.669  0.00  0.00     0.009 C 
BRANCH  57  58
ATOM     58  C           0     137.665 128.437 148.478  0.00  0.00     0.002 C 
BRANCH  58  59
ATOM     59  C           0     136.320 128.755 147.823  0.00  0.00     0.017 C 
BRANCH  59  60
ATOM     60  C           0     135.433 129.507 148.818  0.00  0.00     0.072 C 
ATOM     61  S           0     135.146 128.502 150.339  0.00  0.00    -0.160 SA
ATOM     62  C           0     133.473 129.166 150.748  0.00  0.00     0.101 C 
ATOM     63  C           0     132.913 129.469 149.341  0.00  0.00     0.119 A 
ATOM     64  C           0     133.996 129.658 148.275  0.00  0.00     0.123 A 
ATOM     65  N           0     132.143 128.307 148.868  0.00  0.00    -0.336 N 
ATOM     66  N           0     133.733 128.583 147.304  0.00  0.00    -0.335 N 
ATOM     67  C           0     132.674 127.873 147.717  0.00  0.00     0.316 A 
ATOM     68  H           0     134.243 128.416 146.497  0.00  0.00     0.164 HD
ATOM     69  O           0     132.234 126.920 147.102  0.00  0.00    -0.247 OA
ATOM     70  H           0     131.377 127.919 149.318  0.00  0.00     0.164 HD
ENDBRANCH  59  60
ENDBRANCH  58  59
ENDBRANCH  57  58
ENDBRANCH  56  57
ENDBRANCH  53  56
ENDBRANCH  51  52
ENDBRANCH  50  51
ENDBRANCH  49  50
ENDBRANCH  48  49
ENDBRANCH  47  48
ENDBRANCH  44  47
ENDBRANCH  43  44
ENDBRANCH  42  43
ENDBRANCH  39  42
ENDBRANCH  37  38
ENDBRANCH  36  37
ENDBRANCH   1  36
TORSDOF 26
ENDMDL
MODEL 6
REMARK VINA RESULT:      -7.2      2.614      5.336
REMARK  26 active torsions:
REMARK  status: ('A' for Active; 'I' for Inactive)
REMARK    1  A    between atoms: C_6  and  C_7 
REMARK    2  A    between atoms: C_7  and  O_8 
REMARK    3  A    between atoms: O_8  and  C_9 
REMARK       I    between atoms: C_9  and  N_10 
REMARK    4  A    between atoms: N_10  and  C_11 
REMARK    5  A    between atoms: C_11  and  C_12 
REMARK    6  A    between atoms: C_12  and  C_13 
REMARK    7  A    between atoms: C_13  and  C_14 
REMARK    8  A    between atoms: C_14  and  C_15 
REMARK    9  A    between atoms: C_15  and  C_16 
REMARK   10  A    between atoms: C_16  and  N_17 
REMARK       I    between atoms: N_17  and  C_18 
REMARK   11  A    between atoms: C_18  and  C_19 
REMARK   12  A    between atoms: C_19  and  C_20 
REMARK   13  A    between atoms: C_20  and  C_21 
REMARK   14  A    between atoms: C_21  and  C_24 
REMARK   15  A    between atoms: C_24  and  C_25 
REMARK   16  A    between atoms: C_25  and  C_26 
REMARK   17  A    between atoms: C_26  and  C_27 
REMARK   18  A    between atoms: C_27  and  C_28 
REMARK   19  A    between atoms: C_28  and  N_29 
REMARK       I    between atoms: N_29  and  C_30 
REMARK   20  A    between atoms: C_30  and  C_31 
REMARK   21  A    between atoms: C_31  and  C_32 
REMARK   22  A    between atoms: C_32  and  C_33 
REMARK   23  A    between atoms: C_33  and  C_34 
REMARK   24  A    between atoms: C_34  and  C_35 
REMARK   25  A    between atoms: C_58  and  O_59 
REMARK   26  A    between atoms: C_58  and  O_60 
ROOT
ATOM      1  C           0     133.606 133.726 141.563  0.00  0.00     0.002 C 
ENDROOT
BRANCH   1   2
ATOM      2  C           0     132.392 133.088 140.886  0.00  0.00     0.002 C 
BRANCH   2   3
ATOM      3  C           0     132.060 133.857 139.605  0.00  0.00     0.020 C 
BRANCH   3   4
ATOM      4  C           0     133.176 134.859 139.307  0.00  0.00     0.125 C 
BRANCH   4   5
ATOM      5  N           0     132.985 135.420 137.967  0.00  0.00    -0.337 N 
ATOM      6  C           0     133.957 135.299 137.041  0.00  0.00     0.360 C 
ATOM      7  O           0     134.991 134.724 137.318  0.00  0.00    -0.239 OA
ATOM      8  H           0     132.160 135.878 137.746  0.00  0.00     0.164 HD
BRANCH   6   9
ATOM      9  O           0     133.782 135.814 135.810  0.00  0.00    -0.302 OA
BRANCH   9  10
ATOM     10  C           0     132.650 135.396 135.002  0.00  0.00     0.208 C 
BRANCH  10  11
ATOM     11  C           0     132.658 133.873 134.861  0.00  0.00     0.151 C 
ATOM     12  N           0     133.620 133.501 133.828  0.00  0.00    -0.218 N 
ATOM     13  C           0     133.324 133.813 132.512  0.00  0.00     0.672 C 
ATOM     14  H           0     134.446 133.047 134.056  0.00  0.00     0.178 HD
ATOM     15  N           0     134.252 134.032 131.625  0.00  0.00    -0.235 N 
ATOM     16  N           0     131.989 133.882 132.205  0.00  0.00    -0.183 N 
ATOM     17  H           0     135.187 133.979 131.877  0.00  0.00     0.174 HD
ATOM     18  H           0     134.009 134.245 130.710  0.00  0.00     0.174 HD
ATOM     19  C           0     130.871 133.523 133.078  0.00  0.00     0.217 C 
ATOM     20  C           0     131.372 134.381 130.963  0.00  0.00     0.150 C 
ATOM     21  C           0     131.252 133.404 134.545  0.00  0.00     0.180 C 
ATOM     22  C           0     129.808 134.612 132.846  0.00  0.00     0.209 C 
ATOM     23  N           0     130.324 132.205 132.720  0.00  0.00    -0.191 N 
ATOM     24  N           0     131.147 131.956 134.822  0.00  0.00    -0.216 N 
ATOM     25  C           0     130.381 131.398 133.828  0.00  0.00     0.670 C 
ATOM     26  H           0     131.548 131.486 135.570  0.00  0.00     0.178 HD
ATOM     27  N           0     129.783 130.244 133.926  0.00  0.00    -0.235 N 
ATOM     28  H           0     129.865 129.722 134.740  0.00  0.00     0.174 HD
ATOM     29  H           0     129.255 129.907 133.185  0.00  0.00     0.174 HD
ATOM     30  C           0     130.139 135.184 131.445  0.00  0.00     0.093 C 
ATOM     31  H           0     129.978 131.951 131.849  0.00  0.00     0.180 HD
BRANCH  22  32
ATOM     32  O           0     128.497 134.044 132.856  0.00  0.00    -0.362 OA
ATOM     33  H           0     128.026 134.414 132.097  0.00  0.00     0.213 HD
ENDBRANCH  22  32
BRANCH  22  34
ATOM     34  O           0     129.917 135.633 133.840  0.00  0.00    -0.362 OA
ATOM     35  H           0     129.799 136.478 133.385  0.00  0.00     0.213 HD
ENDBRANCH  22  34
ENDBRANCH  10  11
ENDBRANCH   9  10
ENDBRANCH   6   9
ENDBRANCH   4   5
ENDBRANCH   3   4
ENDBRANCH   2   3
ENDBRANCH   1   2
BRANCH   1  36
ATOM     36  C           0     134.384 132.654 142.329  0.00  0.00     0.020 C 
BRANCH  36  37
ATOM     37  C           0     135.866 132.736 141.958  0.00  0.00     0.122 C 
BRANCH  37  38
ATOM     38  N           0     136.613 133.345 143.061  0.00  0.00    -0.361 N 
ATOM     39  C           0     137.274 132.564 143.938  0.00  0.00     0.217 C 
ATOM     40  O           0     137.251 131.358 143.814  0.00  0.00    -0.274 OA
ATOM     41  H           0     136.632 134.310 143.160  0.00  0.00     0.162 HD
BRANCH  39  42
ATOM     42  C           0     138.043 133.190 145.074  0.00  0.00     0.107 C 
BRANCH  42  43
ATOM     43  C           0     139.196 132.270 145.477  0.00  0.00     0.070 C 
BRANCH  43  44
ATOM     44  C           0     138.991 131.797 146.917  0.00  0.00     0.186 A 
ATOM     45  N           0     138.697 132.795 147.949  0.00  0.00    -0.159 NA
ATOM     46  N           0     139.854 132.348 147.966  0.00  0.00    -0.159 NA
BRANCH  44  47
ATOM     47  C           0     138.442 130.379 147.092  0.00  0.00     0.061 C 
BRANCH  47  48
ATOM     48  C           0     136.926 130.440 147.287  0.00  0.00     0.004 C 
BRANCH  48  49
ATOM     49  C           0     136.366 129.019 147.374  0.00  0.00     0.002 C 
BRANCH  49  50
ATOM     50  C           0     135.064 128.933 146.575  0.00  0.00     0.020 C 
BRANCH  50  51
ATOM     51  C           0     133.997 128.225 147.413  0.00  0.00     0.122 C 
BRANCH  51  52
ATOM     52  N           0     133.795 128.957 148.665  0.00  0.00    -0.361 N 
ATOM     53  C           0     132.578 128.977 149.246  0.00  0.00     0.217 C 
ATOM     54  O           0     131.652 128.388 148.730  0.00  0.00    -0.274 OA
ATOM     55  H           0     134.536 129.428 149.077  0.00  0.00     0.162 HD
BRANCH  53  56
ATOM     56  C           0     132.370 129.730 150.534  0.00  0.00     0.103 C 
BRANCH  56  57
ATOM     57  C           0     133.264 130.971 150.551  0.00  0.00     0.009 C 
BRANCH  57  58
ATOM     58  C           0     132.449 132.193 150.123  0.00  0.00     0.002 C 
BRANCH  58  59
ATOM     59  C           0     133.391 133.266 149.572  0.00  0.00     0.017 C 
BRANCH  59  60
ATOM     60  C           0     133.460 133.150 148.047  0.00  0.00     0.072 C 
ATOM     61  S           0     135.080 133.760 147.410  0.00  0.00    -0.160 SA
ATOM     62  C           0     134.478 134.355 145.769  0.00  0.00     0.101 C 
ATOM     63  C           0     133.039 134.796 146.114  0.00  0.00     0.119 A 
ATOM     64  C           0     132.476 134.129 147.372  0.00  0.00     0.123 A 
ATOM     65  N           0     133.040 136.232 146.438  0.00  0.00    -0.336 N 
ATOM     66  N           0     132.214 135.254 148.285  0.00  0.00    -0.335 N 
ATOM     67  C           0     132.560 136.398 147.679  0.00  0.00     0.316 A 
ATOM     68  H           0     131.850 135.179 149.180  0.00  0.00     0.164 HD
ATOM     69  O           0     132.449 137.488 148.206  0.00  0.00    -0.247 OA
ATOM     70  H           0     133.340 136.942 145.850  0.00  0.00     0.164 HD
ENDBRANCH  59  60
ENDBRANCH  58  59
ENDBRANCH  57  58
ENDBRANCH  56  57
ENDBRANCH  53  56
ENDBRANCH  51  52
ENDBRANCH  50  51
ENDBRANCH  49  50
ENDBRANCH  48  49
ENDBRANCH  47  48
ENDBRANCH  44  47
ENDBRANCH  43  44
ENDBRANCH  42  43
ENDBRANCH  39  42
ENDBRANCH  37  38
ENDBRANCH  36  37
ENDBRANCH   1  36
TORSDOF 26
ENDMDL
MODEL 7
REMARK VINA RESULT:      -7.1      2.609      5.482
REMARK  26 active torsions:
REMARK  status: ('A' for Active; 'I' for Inactive)
REMARK    1  A    between atoms: C_6  and  C_7 
REMARK    2  A    between atoms: C_7  and  O_8 
REMARK    3  A    between atoms: O_8  and  C_9 
REMARK       I    between atoms: C_9  and  N_10 
REMARK    4  A    between atoms: N_10  and  C_11 
REMARK    5  A    between atoms: C_11  and  C_12 
REMARK    6  A    between atoms: C_12  and  C_13 
REMARK    7  A    between atoms: C_13  and  C_14 
REMARK    8  A    between atoms: C_14  and  C_15 
REMARK    9  A    between atoms: C_15  and  C_16 
REMARK   10  A    between atoms: C_16  and  N_17 
REMARK       I    between atoms: N_17  and  C_18 
REMARK   11  A    between atoms: C_18  and  C_19 
REMARK   12  A    between atoms: C_19  and  C_20 
REMARK   13  A    between atoms: C_20  and  C_21 
REMARK   14  A    between atoms: C_21  and  C_24 
REMARK   15  A    between atoms: C_24  and  C_25 
REMARK   16  A    between atoms: C_25  and  C_26 
REMARK   17  A    between atoms: C_26  and  C_27 
REMARK   18  A    between atoms: C_27  and  C_28 
REMARK   19  A    between atoms: C_28  and  N_29 
REMARK       I    between atoms: N_29  and  C_30 
REMARK   20  A    between atoms: C_30  and  C_31 
REMARK   21  A    between atoms: C_31  and  C_32 
REMARK   22  A    between atoms: C_32  and  C_33 
REMARK   23  A    between atoms: C_33  and  C_34 
REMARK   24  A    between atoms: C_34  and  C_35 
REMARK   25  A    between atoms: C_58  and  O_59 
REMARK   26  A    between atoms: C_58  and  O_60 
ROOT
ATOM      1  C           0     133.849 132.992 141.374  0.00  0.00     0.002 C 
ENDROOT
BRANCH   1   2
ATOM      2  C           0     132.345 133.125 141.122  0.00  0.00     0.002 C 
BRANCH   2   3
ATOM      3  C           0     132.112 133.688 139.718  0.00  0.00     0.020 C 
BRANCH   3   4
ATOM      4  C           0     133.135 134.789 139.434  0.00  0.00     0.125 C 
BRANCH   4   5
ATOM      5  N           0     132.863 135.381 138.121  0.00  0.00    -0.337 N 
ATOM      6  C           0     133.768 135.265 137.129  0.00  0.00     0.360 C 
ATOM      7  O           0     134.808 134.669 137.323  0.00  0.00    -0.239 OA
ATOM      8  H           0     132.032 135.857 137.967  0.00  0.00     0.164 HD
BRANCH   6   9
ATOM      9  O           0     133.518 135.810 135.924  0.00  0.00    -0.302 OA
BRANCH   9  10
ATOM     10  C           0     132.364 135.376 135.156  0.00  0.00     0.208 C 
BRANCH  10  11
ATOM     11  C           0     132.403 133.856 134.991  0.00  0.00     0.151 C 
ATOM     12  N           0     133.428 133.514 134.008  0.00  0.00    -0.218 N 
ATOM     13  C           0     133.203 133.845 132.683  0.00  0.00     0.672 C 
ATOM     14  H           0     134.247 133.068 134.277  0.00  0.00     0.178 HD
ATOM     15  N           0     134.177 134.092 131.854  0.00  0.00    -0.235 N 
ATOM     16  N           0     131.888 133.900 132.301  0.00  0.00    -0.183 N 
ATOM     17  H           0     135.097 134.048 132.159  0.00  0.00     0.174 HD
ATOM     18  H           0     133.984 134.317 130.930  0.00  0.00     0.174 HD
ATOM     19  C           0     130.726 133.512 133.102  0.00  0.00     0.217 C 
ATOM     20  C           0     131.335 134.412 131.034  0.00  0.00     0.150 C 
ATOM     21  C           0     131.024 133.373 134.587  0.00  0.00     0.180 C 
ATOM     22  C           0     129.662 134.589 132.828  0.00  0.00     0.209 C 
ATOM     23  N           0     130.220 132.192 132.692  0.00  0.00    -0.191 N 
ATOM     24  N           0     130.925 131.919 134.834  0.00  0.00    -0.216 N 
ATOM     25  C           0     130.226 131.367 133.789  0.00  0.00     0.670 C 
ATOM     26  H           0     131.290 131.442 135.596  0.00  0.00     0.178 HD
ATOM     27  N           0     129.640 130.204 133.834  0.00  0.00    -0.235 N 
ATOM     28  H           0     129.683 129.670 134.642  0.00  0.00     0.174 HD
ATOM     29  H           0     129.161 129.873 133.058  0.00  0.00     0.174 HD
ATOM     30  C           0     130.064 135.190 131.457  0.00  0.00     0.093 C 
ATOM     31  H           0     129.928 131.948 131.799  0.00  0.00     0.180 HD
BRANCH  22  32
ATOM     32  O           0     128.361 134.004 132.753  0.00  0.00    -0.362 OA
ATOM     33  H           0     128.273 133.420 133.519  0.00  0.00     0.213 HD
ENDBRANCH  22  32
BRANCH  22  34
ATOM     34  O           0     129.700 135.595 133.843  0.00  0.00    -0.362 OA
ATOM     35  H           0     128.860 135.541 134.319  0.00  0.00     0.213 HD
ENDBRANCH  22  34
ENDBRANCH  10  11
ENDBRANCH   9  10
ENDBRANCH   6   9
ENDBRANCH   4   5
ENDBRANCH   3   4
ENDBRANCH   2   3
ENDBRANCH   1   2
BRANCH   1  36
ATOM     36  C           0     134.107 131.798 142.296  0.00  0.00     0.020 C 
BRANCH  36  37
ATOM     37  C           0     134.939 132.252 143.498  0.00  0.00     0.122 C 
BRANCH  37  38
ATOM     38  N           0     134.045 132.665 144.581  0.00  0.00    -0.361 N 
ATOM     39  C           0     133.925 133.971 144.895  0.00  0.00     0.217 C 
ATOM     40  O           0     134.557 134.803 144.280  0.00  0.00    -0.274 OA
ATOM     41  H           0     133.538 131.999 145.073  0.00  0.00     0.162 HD
BRANCH  39  42
ATOM     42  C           0     133.004 134.396 146.010  0.00  0.00     0.107 C 
BRANCH  42  43
ATOM     43  C           0     133.818 135.086 147.106  0.00  0.00     0.070 C 
BRANCH  43  44
ATOM     44  C           0     133.776 134.241 148.381  0.00  0.00     0.186 A 
ATOM     45  N           0     132.479 133.988 149.013  0.00  0.00    -0.159 NA
ATOM     46  N           0     133.190 134.824 149.591  0.00  0.00    -0.159 NA
BRANCH  44  47
ATOM     47  C           0     134.883 133.195 148.535  0.00  0.00     0.061 C 
BRANCH  47  48
ATOM     48  C           0     136.123 133.648 147.763  0.00  0.00     0.004 C 
BRANCH  48  49
ATOM     49  C           0     136.758 132.443 147.065  0.00  0.00     0.002 C 
BRANCH  49  50
ATOM     50  C           0     137.642 132.928 145.914  0.00  0.00     0.020 C 
BRANCH  50  51
ATOM     51  C           0     138.411 131.742 145.329  0.00  0.00     0.122 C 
BRANCH  51  52
ATOM     52  N           0     138.571 130.709 146.354  0.00  0.00    -0.361 N 
ATOM     53  C           0     139.759 130.549 146.972  0.00  0.00     0.217 C 
ATOM     54  O           0     140.695 131.262 146.678  0.00  0.00    -0.274 OA
ATOM     55  H           0     137.823 130.138 146.589  0.00  0.00     0.162 HD
BRANCH  53  56
ATOM     56  C           0     139.924 129.486 148.027  0.00  0.00     0.103 C 
BRANCH  56  57
ATOM     57  C           0     139.318 129.976 149.344  0.00  0.00     0.009 C 
BRANCH  57  58
ATOM     58  C           0     138.215 129.012 149.787  0.00  0.00     0.002 C 
BRANCH  58  59
ATOM     59  C           0     136.852 129.576 149.381  0.00  0.00     0.017 C 
BRANCH  59  60
ATOM     60  C           0     136.008 128.465 148.751  0.00  0.00     0.072 C 
ATOM     61  S           0     135.404 128.961 147.079  0.00  0.00    -0.160 SA
ATOM     62  C           0     133.834 127.991 147.099  0.00  0.00     0.101 C 
ATOM     63  C           0     133.477 128.017 148.601  0.00  0.00     0.119 A 
ATOM     64  C           0     134.679 128.279 149.514  0.00  0.00     0.123 A 
ATOM     65  N           0     132.576 129.151 148.862  0.00  0.00    -0.336 N 
ATOM     66  N           0     134.339 129.535 150.201  0.00  0.00    -0.335 N 
ATOM     67  C           0     133.139 129.955 149.774  0.00  0.00     0.316 A 
ATOM     68  H           0     134.892 129.986 150.856  0.00  0.00     0.164 HD
ATOM     69  O           0     132.610 130.973 150.178  0.00  0.00    -0.247 OA
ATOM     70  H           0     131.714 129.293 148.441  0.00  0.00     0.164 HD
ENDBRANCH  59  60
ENDBRANCH  58  59
ENDBRANCH  57  58
ENDBRANCH  56  57
ENDBRANCH  53  56
ENDBRANCH  51  52
ENDBRANCH  50  51
ENDBRANCH  49  50
ENDBRANCH  48  49
ENDBRANCH  47  48
ENDBRANCH  44  47
ENDBRANCH  43  44
ENDBRANCH  42  43
ENDBRANCH  39  42
ENDBRANCH  37  38
ENDBRANCH  36  37
ENDBRANCH   1  36
TORSDOF 26
ENDMDL
MODEL 8
REMARK VINA RESULT:      -7.0      3.071      5.911
REMARK  26 active torsions:
REMARK  status: ('A' for Active; 'I' for Inactive)
REMARK    1  A    between atoms: C_6  and  C_7 
REMARK    2  A    between atoms: C_7  and  O_8 
REMARK    3  A    between atoms: O_8  and  C_9 
REMARK       I    between atoms: C_9  and  N_10 
REMARK    4  A    between atoms: N_10  and  C_11 
REMARK    5  A    between atoms: C_11  and  C_12 
REMARK    6  A    between atoms: C_12  and  C_13 
REMARK    7  A    between atoms: C_13  and  C_14 
REMARK    8  A    between atoms: C_14  and  C_15 
REMARK    9  A    between atoms: C_15  and  C_16 
REMARK   10  A    between atoms: C_16  and  N_17 
REMARK       I    between atoms: N_17  and  C_18 
REMARK   11  A    between atoms: C_18  and  C_19 
REMARK   12  A    between atoms: C_19  and  C_20 
REMARK   13  A    between atoms: C_20  and  C_21 
REMARK   14  A    between atoms: C_21  and  C_24 
REMARK   15  A    between atoms: C_24  and  C_25 
REMARK   16  A    between atoms: C_25  and  C_26 
REMARK   17  A    between atoms: C_26  and  C_27 
REMARK   18  A    between atoms: C_27  and  C_28 
REMARK   19  A    between atoms: C_28  and  N_29 
REMARK       I    between atoms: N_29  and  C_30 
REMARK   20  A    between atoms: C_30  and  C_31 
REMARK   21  A    between atoms: C_31  and  C_32 
REMARK   22  A    between atoms: C_32  and  C_33 
REMARK   23  A    between atoms: C_33  and  C_34 
REMARK   24  A    between atoms: C_34  and  C_35 
REMARK   25  A    between atoms: C_58  and  O_59 
REMARK   26  A    between atoms: C_58  and  O_60 
ROOT
ATOM      1  C           0     134.336 133.126 142.532  0.00  0.00     0.002 C 
ENDROOT
BRANCH   1   2
ATOM      2  C           0     134.559 133.502 141.065  0.00  0.00     0.002 C 
BRANCH   2   3
ATOM      3  C           0     133.220 133.873 140.425  0.00  0.00     0.020 C 
BRANCH   3   4
ATOM      4  C           0     133.295 135.299 139.875  0.00  0.00     0.125 C 
BRANCH   4   5
ATOM      5  N           0     132.580 135.368 138.598  0.00  0.00    -0.337 N 
ATOM      6  C           0     133.249 135.192 137.441  0.00  0.00     0.360 C 
ATOM      7  O           0     134.444 134.975 137.458  0.00  0.00    -0.239 OA
ATOM      8  H           0     131.626 135.541 138.585  0.00  0.00     0.164 HD
BRANCH   6   9
ATOM      9  O           0     132.593 135.256 136.267  0.00  0.00    -0.302 OA
BRANCH   9  10
ATOM     10  C           0     133.233 134.788 135.051  0.00  0.00     0.208 C 
BRANCH  10  11
ATOM     11  C           0     132.288 133.839 134.310  0.00  0.00     0.151 C 
ATOM     12  N           0     132.959 133.345 133.112  0.00  0.00    -0.218 N 
ATOM     13  C           0     133.189 134.233 132.075  0.00  0.00     0.672 C 
ATOM     14  H           0     133.239 132.418 133.043  0.00  0.00     0.178 HD
ATOM     15  N           0     134.188 134.093 131.250  0.00  0.00    -0.235 N 
ATOM     16  N           0     132.300 135.272 131.976  0.00  0.00    -0.183 N 
ATOM     17  H           0     134.801 133.349 131.352  0.00  0.00     0.174 HD
ATOM     18  H           0     134.317 134.733 130.532  0.00  0.00     0.174 HD
ATOM     19  C           0     131.073 135.451 132.754  0.00  0.00     0.217 C 
ATOM     20  C           0     132.397 136.466 131.119  0.00  0.00     0.150 C 
ATOM     21  C           0     131.002 134.577 133.997  0.00  0.00     0.180 C 
ATOM     22  C           0     131.026 136.950 133.102  0.00  0.00     0.209 C 
ATOM     23  N           0     129.889 135.083 131.963  0.00  0.00    -0.191 N 
ATOM     24  N           0     129.942 133.596 133.680  0.00  0.00    -0.216 N 
ATOM     25  C           0     129.203 134.106 132.640  0.00  0.00     0.670 C 
ATOM     26  H           0     129.796 132.747 134.125  0.00  0.00     0.178 HD
ATOM     27  N           0     128.000 133.710 132.335  0.00  0.00    -0.235 N 
ATOM     28  H           0     127.571 133.013 132.856  0.00  0.00     0.174 HD
ATOM     29  H           0     127.532 134.113 131.587  0.00  0.00     0.174 HD
ATOM     30  C           0     131.905 137.626 132.019  0.00  0.00     0.093 C 
ATOM     31  H           0     129.633 135.469 131.110  0.00  0.00     0.180 HD
BRANCH  22  32
ATOM     32  O           0     129.686 137.440 133.034  0.00  0.00    -0.362 OA
ATOM     33  H           0     129.138 136.712 132.710  0.00  0.00     0.213 HD
ENDBRANCH  22  32
BRANCH  22  34
ATOM     34  O           0     131.575 137.176 134.402  0.00  0.00    -0.362 OA
ATOM     35  H           0     130.873 136.984 135.038  0.00  0.00     0.213 HD
ENDBRANCH  22  34
ENDBRANCH  10  11
ENDBRANCH   9  10
ENDBRANCH   6   9
ENDBRANCH   4   5
ENDBRANCH   3   4
ENDBRANCH   2   3
ENDBRANCH   1   2
BRANCH   1  36
ATOM     36  C           0     134.649 131.642 142.731  0.00  0.00     0.020 C 
BRANCH  36  37
ATOM     37  C           0     134.912 131.371 144.214  0.00  0.00     0.122 C 
BRANCH  37  38
ATOM     38  N           0     136.341 131.126 144.420  0.00  0.00    -0.361 N 
ATOM     39  C           0     137.045 131.913 145.257  0.00  0.00     0.217 C 
ATOM     40  O           0     136.496 132.824 145.839  0.00  0.00    -0.274 OA
ATOM     41  H           0     136.781 130.397 143.954  0.00  0.00     0.162 HD
BRANCH  39  42
ATOM     42  C           0     138.517 131.662 145.469  0.00  0.00     0.107 C 
BRANCH  42  43
ATOM     43  C           0     138.985 132.403 146.722  0.00  0.00     0.070 C 
BRANCH  43  44
ATOM     44  C           0     139.667 131.417 147.673  0.00  0.00     0.186 A 
ATOM     45  N           0     140.461 131.948 148.783  0.00  0.00    -0.159 NA
ATOM     46  N           0     141.121 131.493 147.838  0.00  0.00    -0.159 NA
BRANCH  44  47
ATOM     47  C           0     138.981 130.059 147.845  0.00  0.00     0.061 C 
BRANCH  47  48
ATOM     48  C           0     137.976 130.138 148.996  0.00  0.00     0.004 C 
BRANCH  48  49
ATOM     49  C           0     136.555 130.028 148.440  0.00  0.00     0.002 C 
BRANCH  49  50
ATOM     50  C           0     136.500 128.907 147.400  0.00  0.00     0.020 C 
BRANCH  50  51
ATOM     51  C           0     135.096 128.841 146.796  0.00  0.00     0.122 C 
BRANCH  51  52
ATOM     52  N           0     134.107 129.199 147.815  0.00  0.00    -0.361 N 
ATOM     53  C           0     133.203 128.289 148.227  0.00  0.00     0.217 C 
ATOM     54  O           0     133.208 127.173 147.753  0.00  0.00    -0.274 OA
ATOM     55  H           0     134.103 130.092 148.195  0.00  0.00     0.162 HD
BRANCH  53  56
ATOM     56  C           0     132.185 128.657 149.276  0.00  0.00     0.103 C 
BRANCH  56  57
ATOM     57  C           0     132.760 129.746 150.185  0.00  0.00     0.009 C 
BRANCH  57  58
ATOM     58  C           0     131.762 130.901 150.292  0.00  0.00     0.002 C 
BRANCH  58  59
ATOM     59  C           0     132.121 131.981 149.269  0.00  0.00     0.017 C 
BRANCH  59  60
ATOM     60  C           0     133.365 132.737 149.741  0.00  0.00     0.072 C 
ATOM     61  S           0     132.941 134.461 150.243  0.00  0.00    -0.160 SA
ATOM     62  C           0     134.557 135.238 149.803  0.00  0.00     0.101 C 
ATOM     63  C           0     134.996 134.372 148.603  0.00  0.00     0.119 A 
ATOM     64  C           0     134.338 132.989 148.569  0.00  0.00     0.123 A 
ATOM     65  N           0     134.547 135.013 147.356  0.00  0.00    -0.336 N 
ATOM     66  N           0     133.581 132.985 147.307  0.00  0.00    -0.335 N 
ATOM     67  C           0     133.755 134.161 146.689  0.00  0.00     0.316 A 
ATOM     68  H           0     133.043 132.250 146.975  0.00  0.00     0.164 HD
ATOM     69  O           0     133.241 134.433 145.621  0.00  0.00    -0.247 OA
ATOM     70  H           0     134.785 135.907 147.066  0.00  0.00     0.164 HD
ENDBRANCH  59  60
ENDBRANCH  58  59
ENDBRANCH  57  58
ENDBRANCH  56  57
ENDBRANCH  53  56
ENDBRANCH  51  52
ENDBRANCH  50  51
ENDBRANCH  49  50
ENDBRANCH  48  49
ENDBRANCH  47  48
ENDBRANCH  44  47
ENDBRANCH  43  44
ENDBRANCH  42  43
ENDBRANCH  39  42
ENDBRANCH  37  38
ENDBRANCH  36  37
ENDBRANCH   1  36
TORSDOF 26
ENDMDL
MODEL 9
REMARK VINA RESULT:      -6.8      2.772      5.746
REMARK  26 active torsions:
REMARK  status: ('A' for Active; 'I' for Inactive)
REMARK    1  A    between atoms: C_6  and  C_7 
REMARK    2  A    between atoms: C_7  and  O_8 
REMARK    3  A    between atoms: O_8  and  C_9 
REMARK       I    between atoms: C_9  and  N_10 
REMARK    4  A    between atoms: N_10  and  C_11 
REMARK    5  A    between atoms: C_11  and  C_12 
REMARK    6  A    between atoms: C_12  and  C_13 
REMARK    7  A    between atoms: C_13  and  C_14 
REMARK    8  A    between atoms: C_14  and  C_15 
REMARK    9  A    between atoms: C_15  and  C_16 
REMARK   10  A    between atoms: C_16  and  N_17 
REMARK       I    between atoms: N_17  and  C_18 
REMARK   11  A    between atoms: C_18  and  C_19 
REMARK   12  A    between atoms: C_19  and  C_20 
REMARK   13  A    between atoms: C_20  and  C_21 
REMARK   14  A    between atoms: C_21  and  C_24 
REMARK   15  A    between atoms: C_24  and  C_25 
REMARK   16  A    between atoms: C_25  and  C_26 
REMARK   17  A    between atoms: C_26  and  C_27 
REMARK   18  A    between atoms: C_27  and  C_28 
REMARK   19  A    between atoms: C_28  and  N_29 
REMARK       I    between atoms: N_29  and  C_30 
REMARK   20  A    between atoms: C_30  and  C_31 
REMARK   21  A    between atoms: C_31  and  C_32 
REMARK   22  A    between atoms: C_32  and  C_33 
REMARK   23  A    between atoms: C_33  and  C_34 
REMARK   24  A    between atoms: C_34  and  C_35 
REMARK   25  A    between atoms: C_58  and  O_59 
REMARK   26  A    between atoms: C_58  and  O_60 
ROOT
ATOM      1  C           0     134.888 133.136 141.047  0.00  0.00     0.002 C 
ENDROOT
BRANCH   1   2
ATOM      2  C           0     133.459 133.550 141.403  0.00  0.00     0.002 C 
BRANCH   2   3
ATOM      3  C           0     132.695 133.897 140.124  0.00  0.00     0.020 C 
BRANCH   3   4
ATOM      4  C           0     133.261 135.187 139.526  0.00  0.00     0.125 C 
BRANCH   4   5
ATOM      5  N           0     132.824 135.312 138.133  0.00  0.00    -0.337 N 
ATOM      6  C           0     133.715 135.170 137.131  0.00  0.00     0.360 C 
ATOM      7  O           0     134.880 134.938 137.384  0.00  0.00    -0.239 OA
ATOM      8  H           0     131.894 135.498 137.931  0.00  0.00     0.164 HD
BRANCH   6   9
ATOM      9  O           0     133.313 135.286 135.852  0.00  0.00    -0.302 OA
BRANCH   9  10
ATOM     10  C           0     132.919 134.105 135.105  0.00  0.00     0.208 C 
BRANCH  10  11
ATOM     11  C           0     134.039 133.717 134.137  0.00  0.00     0.151 C 
ATOM     12  N           0     133.773 134.329 132.838  0.00  0.00    -0.218 N 
ATOM     13  C           0     132.706 133.855 132.095  0.00  0.00     0.672 C 
ATOM     14  H           0     134.330 135.051 132.504  0.00  0.00     0.178 HD
ATOM     15  N           0     132.059 134.609 131.252  0.00  0.00    -0.235 N 
ATOM     16  N           0     132.370 132.544 132.308  0.00  0.00    -0.183 N 
ATOM     17  H           0     132.320 135.535 131.129  0.00  0.00     0.174 HD
ATOM     18  H           0     131.317 134.243 130.744  0.00  0.00     0.174 HD
ATOM     19  C           0     133.106 131.573 133.121  0.00  0.00     0.217 C 
ATOM     20  C           0     131.178 131.825 131.826  0.00  0.00     0.150 C 
ATOM     21  C           0     134.118 132.205 134.064  0.00  0.00     0.180 C 
ATOM     22  C           0     132.029 130.780 133.882  0.00  0.00     0.209 C 
ATOM     23  N           0     133.892 130.663 132.273  0.00  0.00    -0.191 N 
ATOM     24  N           0     135.425 131.813 133.494  0.00  0.00    -0.216 N 
ATOM     25  C           0     135.208 130.749 132.652  0.00  0.00     0.670 C 
ATOM     26  H           0     136.280 132.232 133.680  0.00  0.00     0.178 HD
ATOM     27  N           0     136.138 129.923 132.263  0.00  0.00    -0.235 N 
ATOM     28  H           0     137.051 130.040 132.569  0.00  0.00     0.174 HD
ATOM     29  H           0     135.916 129.190 131.667  0.00  0.00     0.174 HD
ATOM     30  C           0     130.748 130.947 133.027  0.00  0.00     0.093 C 
ATOM     31  H           0     133.539 130.097 131.569  0.00  0.00     0.180 HD
BRANCH  22  32
ATOM     32  O           0     132.391 129.401 133.974  0.00  0.00    -0.362 OA
ATOM     33  H           0     132.798 129.277 134.842  0.00  0.00     0.213 HD
ENDBRANCH  22  32
BRANCH  22  34
ATOM     34  O           0     131.832 131.333 135.186  0.00  0.00    -0.362 OA
ATOM     35  H           0     132.367 130.806 135.795  0.00  0.00     0.213 HD
ENDBRANCH  22  34
ENDBRANCH  10  11
ENDBRANCH   9  10
ENDBRANCH   6   9
ENDBRANCH   4   5
ENDBRANCH   3   4
ENDBRANCH   2   3
ENDBRANCH   1   2
BRANCH   1  36
ATOM     36  C           0     135.638 132.744 142.321  0.00  0.00     0.020 C 
BRANCH  36  37
ATOM     37  C           0     134.639 132.252 143.371  0.00  0.00     0.122 C 
BRANCH  37  38
ATOM     38  N           0     135.066 132.700 144.698  0.00  0.00    -0.361 N 
ATOM     39  C           0     134.356 133.642 145.351  0.00  0.00     0.217 C 
ATOM     40  O           0     133.365 134.119 144.839  0.00  0.00    -0.274 OA
ATOM     41  H           0     135.858 132.318 145.108  0.00  0.00     0.162 HD
BRANCH  39  42
ATOM     42  C           0     134.794 134.104 146.717  0.00  0.00     0.107 C 
BRANCH  42  43
ATOM     43  C           0     133.648 133.913 147.711  0.00  0.00     0.070 C 
BRANCH  43  44
ATOM     44  C           0     133.960 134.674 149.001  0.00  0.00     0.186 A 
ATOM     45  N           0     132.908 134.802 150.013  0.00  0.00    -0.159 NA
ATOM     46  N           0     133.128 135.828 149.354  0.00  0.00    -0.159 NA
BRANCH  44  47
ATOM     47  C           0     135.420 134.659 149.460  0.00  0.00     0.061 C 
BRANCH  47  48
ATOM     48  C           0     135.682 133.397 150.285  0.00  0.00     0.004 C 
BRANCH  48  49
ATOM     49  C           0     137.143 132.976 150.122  0.00  0.00     0.002 C 
BRANCH  49  50
ATOM     50  C           0     137.925 134.101 149.440  0.00  0.00     0.020 C 
BRANCH  50  51
ATOM     51  C           0     138.985 133.498 148.516  0.00  0.00     0.122 C 
BRANCH  51  52
ATOM     52  N           0     138.531 132.189 148.041  0.00  0.00    -0.361 N 
ATOM     53  C           0     138.068 132.051 146.782  0.00  0.00     0.217 C 
ATOM     54  O           0     138.028 133.011 146.043  0.00  0.00    -0.274 OA
ATOM     55  H           0     138.562 131.421 148.632  0.00  0.00     0.162 HD
BRANCH  53  56
ATOM     56  C           0     137.600 130.704 146.294  0.00  0.00     0.103 C 
BRANCH  56  57
ATOM     57  C           0     137.239 129.824 147.492  0.00  0.00     0.009 C 
BRANCH  57  58
ATOM     58  C           0     135.763 130.023 147.844  0.00  0.00     0.002 C 
BRANCH  58  59
ATOM     59  C           0     135.496 129.481 149.250  0.00  0.00     0.017 C 
BRANCH  59  60
ATOM     60  C           0     134.446 128.371 149.177  0.00  0.00     0.072 C 
ATOM     61  S           0     133.757 128.222 147.472  0.00  0.00    -0.160 SA
ATOM     62  C           0     132.074 127.630 147.948  0.00  0.00     0.101 C 
ATOM     63  C           0     131.875 128.339 149.306  0.00  0.00     0.119 A 
ATOM     64  C           0     133.185 128.747 149.985  0.00  0.00     0.123 A 
ATOM     65  N           0     131.173 129.613 149.086  0.00  0.00    -0.336 N 
ATOM     66  N           0     133.096 130.213 150.082  0.00  0.00    -0.335 N 
ATOM     67  C           0     131.932 130.615 149.552  0.00  0.00     0.316 A 
ATOM     68  H           0     133.769 130.794 150.466  0.00  0.00     0.164 HD
ATOM     69  O           0     131.595 131.782 149.499  0.00  0.00    -0.247 OA
ATOM     70  H           0     130.303 129.712 148.669  0.00  0.00     0.164 HD
ENDBRANCH  59  60
ENDBRANCH  58  59
ENDBRANCH  57  58
ENDBRANCH  56  57
ENDBRANCH  53  56
ENDBRANCH  51  52
ENDBRANCH  50  51
ENDBRANCH  49  50
ENDBRANCH  48  49
ENDBRANCH  47  48
ENDBRANCH  44  47
ENDBRANCH  43  44
ENDBRANCH  42  43
ENDBRANCH  39  42
ENDBRANCH  37  38
ENDBRANCH  36  37
ENDBRANCH   1  36
TORSDOF 26
ENDMDL
