# created with PyMOL 2.3.4
@<TRIPOS>MOLECULE
ligand_out_0001
70 75 1                 
SMALL
USER_CHARGES
@<TRIPOS>ATOM
1	   N	133.747	134.338	132.774	N.pl3	1	UNK0	-0.337	
2	   N	133.091	129.346	133.399	N.3	1	UNK0	-0.218	
3	   N	132.188	127.349	132.543	N.3	1	UNK0	-0.235	
4	   N	130.854	129.262	132.744	N.3	1	UNK0	-0.183	
5	   N	129.750	130.570	134.453	N.3	1	UNK0	-0.191	
6	   N	131.709	131.558	135.039	N.3	1	UNK0	-0.216	
7	   N	129.906	131.616	136.568	N.3	1	UNK0	-0.235	
8	   N	133.833	134.526	140.092	N.pl3	1	UNK0	-0.361	
9	   N	137.305	132.644	143.167	N.3	1	UNK0	-0.159	
10	   N	136.801	131.515	143.255	N.3	1	UNK0	-0.159	
11	   N	132.886	134.965	147.588	N.pl3	1	UNK0	-0.361	
12	   N	138.866	130.309	146.710	N.pl3	1	UNK0	-0.336	
13	   N	137.896	132.275	146.219	N.pl3	1	UNK0	-0.335	
14	   C	132.802	135.355	136.603	C.3	1	UNK0	0.002	
15	   C	133.225	134.692	135.290	C.3	1	UNK0	0.002	
16	   C	134.620	135.184	134.897	C.3	1	UNK0	0.020	
17	   C	134.726	135.249	133.372	C.3	1	UNK0	0.125	
18	   C	134.161	133.324	131.988	C.2	1	UNK0	0.360	
19	   C	133.348	131.060	131.693	C.2	1	UNK0	0.208	
20	   C	133.087	130.789	133.176	C.3	1	UNK0	0.151	
21	   C	132.046	128.599	132.882	C.3	1	UNK0	0.672	
22	   C	130.544	130.612	133.215	C.3	1	UNK0	0.217	
23	   C	129.639	128.802	132.049	C.3	1	UNK0	0.150	
24	   C	131.773	131.436	133.567	C.3	1	UNK0	0.180	
25	   C	129.722	131.259	132.087	C.3	1	UNK0	0.209	
26	   C	130.423	131.269	135.423	C.3	1	UNK0	0.670	
27	   C	129.121	130.061	131.310	C.3	1	UNK0	0.093	
28	   C	133.817	135.016	137.696	C.3	1	UNK0	0.020	
29	   C	133.235	135.380	139.063	C.3	1	UNK0	0.122	
30	   C	133.069	133.636	140.756	C.2	1	UNK0	0.217	
31	   C	133.684	132.757	141.815	C.3	1	UNK0	0.107	
32	   C	135.207	132.786	141.680	C.3	1	UNK0	0.070	
33	   C	135.845	132.609	143.060	C.3	1	UNK0	0.186	
34	   C	135.010	133.074	144.255	C.3	1	UNK0	0.061	
35	   C	135.206	134.577	144.461	C.3	1	UNK0	0.004	
36	   C	134.011	135.146	145.228	C.3	1	UNK0	0.002	
37	   C	132.904	134.092	145.303	C.3	1	UNK0	0.020	
38	   C	132.062	134.325	146.559	C.3	1	UNK0	0.122	
39	   C	133.102	134.342	148.764	C.2	1	UNK0	0.217	
40	   C	133.949	135.000	149.822	C.3	1	UNK0	0.103	
41	   C	135.258	135.486	149.198	C.3	1	UNK0	0.009	
42	   C	136.318	134.388	149.314	C.3	1	UNK0	0.002	
43	   C	136.526	133.734	147.947	C.3	1	UNK0	0.017	
44	   C	136.266	132.230	148.056	C.3	1	UNK0	0.072	
45	   C	137.462	129.804	148.662	C.3	1	UNK0	0.101	
46	   C	137.473	130.142	147.155	C.3	1	UNK0	0.119	
47	   C	136.812	131.482	146.820	C.3	1	UNK0	0.123	
48	   C	139.015	131.538	146.196	C.2	1	UNK0	0.316	
49	   O	135.347	133.166	131.777	O.co2	1	UNK0	-0.239	
50	   O	133.261	132.487	131.439	O.2	1	UNK0	-0.302	
51	   O	128.681	132.075	132.627	O.2	1	UNK0	-0.362	
52	   O	130.569	132.032	131.234	O.2	1	UNK0	-0.362	
53	   O	131.887	133.543	140.503	O.2	1	UNK0	-0.274	
54	   O	132.613	133.251	148.969	O.2	1	UNK0	-0.274	
55	   O	140.070	131.947	145.750	O.2	1	UNK0	-0.247	
56	   S	137.270	131.481	149.411	S.3	1	UNK0	-0.160	
57	   H	132.801	134.464	132.944	 H	1	UNK0	0.164	
58	   H	133.807	128.920	133.896	 H	1	UNK0	0.178	
59	   H	133.047	126.912	132.649	 H	1	UNK0	0.174	
60	   H	131.433	126.854	132.187	 H	1	UNK0	0.174	
61	   H	132.443	131.798	135.625	 H	1	UNK0	0.178	
62	   H	130.438	132.111	137.211	 H	1	UNK0	0.174	
63	   H	128.989	131.380	136.777	 H	1	UNK0	0.174	
64	   H	128.893	130.127	134.563	 H	1	UNK0	0.180	
65	   H	129.081	132.614	133.323	 H	1	UNK0	0.213	
66	   H	131.476	131.890	131.539	 H	1	UNK0	0.213	
67	   H	134.779	134.600	140.294	 H	1	UNK0	0.162	
68	   H	133.277	135.837	147.423	 H	1	UNK0	0.162	
69	   H	137.814	133.184	145.892	 H	1	UNK0	0.164	
70	   H	139.563	129.638	146.778	 H	1	UNK0	0.164	
@<TRIPOS>BOND
1 1 18 1
2 1 57 1
3 2 21 1
4 2 58 1
5 3 59 1
6 3 60 1
7 4 22 1
8 4 23 1
9 5 26 1
10 5 64 1
11 6 26 1
12 6 61 1
13 7 62 1
14 7 63 1
15 8 30 1
16 8 67 1
17 9 10 1
18 11 39 1
19 11 68 1
20 12 48 1
21 12 70 1
22 13 48 1
23 13 69 1
24 14 15 1
25 14 28 1
26 15 16 1
27 16 17 1
28 1 17 1
29 18 49 2
30 18 50 2
31 19 20 1
32 2 20 1
33 20 24 1
34 3 21 1
35 4 21 1
36 5 22 1
37 22 24 1
38 22 25 1
39 23 27 1
40 6 24 1
41 25 27 1
42 25 51 2
43 25 52 2
44 7 26 1
45 28 29 1
46 8 29 1
47 30 31 1
48 30 53 2
49 31 32 1
50 32 33 1
51 9 33 1
52 10 33 1
53 33 34 1
54 34 35 1
55 35 36 1
56 36 37 1
57 37 38 1
58 11 38 1
59 39 40 1
60 39 54 2
61 40 41 1
62 41 42 1
63 42 43 1
64 43 44 1
65 44 47 1
66 44 56 1
67 45 46 1
68 12 46 1
69 46 47 1
70 13 47 1
71 48 55 2
72 19 50 2
73 51 65 1
74 52 66 1
75 45 56 1
@<TRIPOS>SUBSTRUCTURE
1	UNK0	1	GROUP	1 ****	UNK
