# created with PyMOL 2.3.4
@<TRIPOS>MOLECULE
ligand_out_0001
75 81 1                 
SMALL
USER_CHARGES
@<TRIPOS>ATOM
1	   N	130.559	132.533	131.916	N.pl3	1	UNK0	-0.357	
2	   N	131.358	126.489	131.773	N.pl3	1	UNK0	-0.361	
3	   N	133.175	130.667	132.776	N.pl3	1	UNK0	-0.335	
4	   N	134.764	131.764	133.925	N.pl3	1	UNK0	-0.336	
5	   N	135.134	133.825	142.436	N.pl3	1	UNK0	-0.333	
6	   N	135.842	132.601	146.976	N.3	1	UNK0	-0.218	
7	   N	136.254	134.242	148.610	N.3	1	UNK0	-0.235	
8	   N	137.950	132.768	147.958	N.3	1	UNK0	-0.183	
9	   N	138.592	130.452	148.239	N.3	1	UNK0	-0.191	
10	   N	137.063	129.787	146.696	N.3	1	UNK0	-0.216	
11	   N	137.918	128.185	148.213	N.3	1	UNK0	-0.235	
12	   C	133.985	134.259	140.343	C.3	1	UNK0	-0.040	
13	   C	135.119	133.882	139.644	C.3	1	UNK0	0.010	
14	   C	135.274	134.252	138.325	C.3	1	UNK0	0.016	
15	   C	134.284	135.010	137.694	C.3	1	UNK0	0.015	
16	   C	133.142	135.386	138.405	C.3	1	UNK0	0.016	
17	   C	132.997	135.003	139.722	C.3	1	UNK0	0.010	
18	   C	134.444	135.410	136.281	C.2	1	UNK0	0.192	
19	   C	133.442	134.993	135.276	C.3	1	UNK0	0.015	
20	   C	132.268	134.354	135.683	C.3	1	UNK0	0.016	
21	   C	131.332	133.970	134.748	C.3	1	UNK0	0.018	
22	   C	131.561	134.212	133.393	C.3	1	UNK0	0.032	
23	   C	132.736	134.845	132.985	C.3	1	UNK0	0.018	
24	   C	133.670	135.233	133.920	C.3	1	UNK0	0.016	
25	   C	130.558	133.796	132.387	C.2	1	UNK0	0.251	
26	   C	129.566	132.121	130.920	C.3	1	UNK0	0.123	
27	   C	128.638	131.069	131.530	C.3	1	UNK0	0.020	
28	   C	129.421	130.217	132.531	C.3	1	UNK0	0.002	
29	   C	129.968	128.975	131.825	C.3	1	UNK0	0.002	
30	   C	129.356	127.721	132.453	C.3	1	UNK0	0.020	
31	   C	129.893	126.479	131.738	C.3	1	UNK0	0.122	
32	   C	132.016	125.702	132.646	C.2	1	UNK0	0.217	
33	   C	133.522	125.712	132.682	C.3	1	UNK0	0.103	
34	   C	134.022	127.157	132.736	C.3	1	UNK0	0.009	
35	   C	134.457	127.599	131.337	C.3	1	UNK0	0.002	
36	   C	133.666	128.843	130.926	C.3	1	UNK0	0.017	
37	   C	134.604	130.050	130.876	C.3	1	UNK0	0.072	
38	   C	134.057	131.213	131.732	C.3	1	UNK0	0.123	
39	   C	135.141	131.961	132.517	C.3	1	UNK0	0.119	
40	   C	136.564	131.405	132.292	C.3	1	UNK0	0.101	
41	   C	133.647	131.025	133.979	C.2	1	UNK0	0.316	
42	   C	133.822	133.850	141.784	C.3	1	UNK0	0.163	
43	   C	135.635	132.662	142.896	C.2	1	UNK0	0.360	
44	   C	136.974	133.073	144.874	C.2	1	UNK0	0.208	
45	   C	136.453	131.976	145.805	C.3	1	UNK0	0.151	
46	   C	136.668	133.245	147.881	C.3	1	UNK0	0.672	
47	   C	138.483	131.576	147.295	C.3	1	UNK0	0.217	
48	   C	139.097	133.363	148.668	C.3	1	UNK0	0.150	
49	   C	137.603	131.057	146.168	C.3	1	UNK0	0.180	
50	   C	139.881	131.977	146.795	C.3	1	UNK0	0.209	
51	   C	137.861	129.400	147.745	C.3	1	UNK0	0.670	
52	   C	140.290	133.165	147.703	C.3	1	UNK0	0.093	
53	   O	135.400	136.080	135.943	O.2	1	UNK0	-0.287	
54	   O	129.734	134.593	131.984	O.2	1	UNK0	-0.268	
55	   O	131.396	124.985	133.404	O.2	1	UNK0	-0.274	
56	   O	133.112	130.709	135.024	O.2	1	UNK0	-0.247	
57	   O	135.000	131.634	142.770	O.co2	1	UNK0	-0.239	
58	   O	136.841	132.639	143.495	O.2	1	UNK0	-0.302	
59	   O	140.800	130.893	146.949	O.2	1	UNK0	-0.362	
60	   O	139.821	132.392	145.429	O.2	1	UNK0	-0.362	
61	   S	136.199	129.686	131.729	S.3	1	UNK0	-0.160	
62	   H	131.217	131.896	132.237	 H	1	UNK0	0.162	
63	   H	131.853	127.061	131.167	 H	1	UNK0	0.162	
64	   H	135.246	132.113	134.691	 H	1	UNK0	0.164	
65	   H	132.379	130.133	132.619	 H	1	UNK0	0.164	
66	   H	135.641	134.646	142.536	 H	1	UNK0	0.165	
67	   H	134.883	132.567	147.114	 H	1	UNK0	0.178	
68	   H	135.341	134.557	148.527	 H	1	UNK0	0.174	
69	   H	136.858	134.668	149.238	 H	1	UNK0	0.174	
70	   H	136.286	129.312	146.362	 H	1	UNK0	0.178	
71	   H	137.374	127.486	147.817	 H	1	UNK0	0.174	
72	   H	138.505	127.979	148.957	 H	1	UNK0	0.174	
73	   H	139.096	130.453	149.067	 H	1	UNK0	0.180	
74	   H	141.646	131.192	146.588	 H	1	UNK0	0.213	
75	   H	139.606	131.607	144.908	 H	1	UNK0	0.213	
@<TRIPOS>BOND
1 1 26 1
2 1 62 1
3 2 32 1
4 2 63 1
5 3 41 1
6 3 65 1
7 4 41 1
8 4 64 1
9 5 43 1
10 5 66 1
11 6 46 1
12 6 67 1
13 7 68 1
14 7 69 1
15 8 47 1
16 8 48 1
17 9 51 1
18 9 73 1
19 10 51 1
20 10 70 1
21 11 71 1
22 11 72 1
23 12 13 1
24 12 17 1
25 12 42 1
26 13 14 1
27 14 15 1
28 15 16 1
29 15 18 1
30 16 17 1
31 18 19 1
32 18 53 2
33 19 20 1
34 19 24 1
35 20 21 1
36 21 22 1
37 22 23 1
38 22 25 1
39 23 24 1
40 1 25 1
41 25 54 2
42 26 27 1
43 27 28 1
44 28 29 1
45 29 30 1
46 30 31 1
47 2 31 1
48 32 33 1
49 32 55 2
50 33 34 1
51 34 35 1
52 35 36 1
53 36 37 1
54 37 38 1
55 37 61 1
56 3 38 1
57 38 39 1
58 4 39 1
59 39 40 1
60 40 61 1
61 41 56 2
62 5 42 1
63 43 57 2
64 43 58 2
65 44 45 1
66 6 45 1
67 45 49 1
68 7 46 1
69 8 46 1
70 9 47 1
71 47 49 1
72 47 50 1
73 48 52 1
74 10 49 1
75 50 52 1
76 50 59 2
77 50 60 2
78 11 51 1
79 44 58 2
80 59 74 1
81 60 75 1
@<TRIPOS>SUBSTRUCTURE
1	UNK0	1	GROUP	1 ****	UNK
