MODEL 1
REMARK VINA RESULT:      -7.3      0.000      0.000
REMARK  5 active torsions:
REMARK  status: ('A' for Active; 'I' for Inactive)
REMARK    1  A    between atoms: C_6  and  C_7 
REMARK    2  A    between atoms: C_7  and  O_8 
REMARK    3  A    between atoms: O_8  and  C_9 
REMARK    4  A    between atoms: C_23  and  O_24 
REMARK    5  A    between atoms: C_23  and  O_25 
ROOT
ATOM      1  N           0     134.898 136.700 143.106  0.00  0.00    -0.235 N 
ATOM      2  H           0     134.092 137.169 142.839  0.00  0.00     0.174 HD
ATOM      3  H           0     135.712 137.197 143.283  0.00  0.00     0.174 HD
ATOM      4  C           0     134.886 135.403 143.232  0.00  0.00     0.672 C 
ATOM      5  N           0     133.747 134.651 142.996  0.00  0.00    -0.218 N 
ATOM      6  C           0     133.911 133.273 142.544  0.00  0.00     0.151 C 
ATOM      7  C           0     134.859 132.477 143.421  0.00  0.00     0.180 C 
ATOM      8  N           0     134.162 132.097 144.669  0.00  0.00    -0.216 N 
ATOM      9  C           0     135.060 132.226 145.701  0.00  0.00     0.670 C 
ATOM     10  N           0     134.927 131.650 146.863  0.00  0.00    -0.235 N 
ATOM     11  H           0     134.156 131.088 147.041  0.00  0.00     0.174 HD
ATOM     12  H           0     135.599 131.782 147.549  0.00  0.00     0.174 HD
ATOM     13  C           0     136.067 133.265 143.904  0.00  0.00     0.217 C 
ATOM     14  N           0     136.113 133.036 145.358  0.00  0.00    -0.191 N 
ATOM     15  N           0     136.000 134.695 143.601  0.00  0.00    -0.183 N 
ATOM     16  C           0     137.385 135.184 143.720  0.00  0.00     0.150 C 
ATOM     17  C           0     138.247 134.043 143.130  0.00  0.00     0.093 C 
ATOM     18  C           0     137.371 132.770 143.255  0.00  0.00     0.209 C 
ATOM     19  H           0     132.864 135.030 143.130  0.00  0.00     0.178 HD
ATOM     20  H           0     133.239 131.808 144.745  0.00  0.00     0.178 HD
ATOM     21  H           0     136.776 133.394 145.968  0.00  0.00     0.180 HD
ENDROOT
BRANCH   6  22
ATOM     22  C           0     134.456 133.283 141.115  0.00  0.00     0.206 C 
BRANCH  22  23
ATOM     23  O           0     133.384 133.608 140.191  0.00  0.00    -0.320 OA
BRANCH  23  24
ATOM     24  C           0     133.323 134.829 139.636  0.00  0.00     0.254 C 
ATOM     25  C           0     133.319 134.977 138.137  0.00  0.00     0.126 C 
ATOM     26  O           0     133.273 135.810 140.340  0.00  0.00    -0.266 OA
ENDBRANCH  23  24
ENDBRANCH  22  23
ENDBRANCH   6  22
BRANCH  18  27
ATOM     27  O           0     138.013 131.804 144.088  0.00  0.00    -0.362 OA
ATOM     28  H           0     138.256 132.258 144.907  0.00  0.00     0.213 HD
ENDBRANCH  18  27
BRANCH  18  29
ATOM     29  O           0     137.105 132.219 141.964  0.00  0.00    -0.362 OA
ATOM     30  H           0     137.107 132.958 141.340  0.00  0.00     0.213 HD
ENDBRANCH  18  29
TORSDOF 5
ENDMDL
MODEL 2
REMARK VINA RESULT:      -7.2      2.023      5.654
REMARK  5 active torsions:
REMARK  status: ('A' for Active; 'I' for Inactive)
REMARK    1  A    between atoms: C_6  and  C_7 
REMARK    2  A    between atoms: C_7  and  O_8 
REMARK    3  A    between atoms: O_8  and  C_9 
REMARK    4  A    between atoms: C_23  and  O_24 
REMARK    5  A    between atoms: C_23  and  O_25 
ROOT
ATOM      1  N           0     134.892 131.965 146.605  0.00  0.00    -0.235 N 
ATOM      2  H           0     135.152 132.034 147.538  0.00  0.00     0.174 HD
ATOM      3  H           0     134.219 131.321 146.336  0.00  0.00     0.174 HD
ATOM      4  C           0     135.443 132.743 145.717  0.00  0.00     0.672 C 
ATOM      5  N           0     136.403 133.682 146.053  0.00  0.00    -0.218 N 
ATOM      6  C           0     137.391 134.052 145.045  0.00  0.00     0.151 C 
ATOM      7  C           0     136.760 134.440 143.721  0.00  0.00     0.180 C 
ATOM      8  N           0     136.205 135.806 143.830  0.00  0.00    -0.216 N 
ATOM      9  C           0     135.008 135.821 143.157  0.00  0.00     0.670 C 
ATOM     10  N           0     134.420 136.905 142.733  0.00  0.00    -0.235 N 
ATOM     11  H           0     134.829 137.771 142.888  0.00  0.00     0.174 HD
ATOM     12  H           0     133.575 136.846 142.263  0.00  0.00     0.174 HD
ATOM     13  C           0     135.561 133.589 143.331  0.00  0.00     0.217 C 
ATOM     14  N           0     134.507 134.555 142.984  0.00  0.00    -0.191 N 
ATOM     15  N           0     135.113 132.681 144.388  0.00  0.00    -0.183 N 
ATOM     16  C           0     134.290 131.667 143.706  0.00  0.00     0.150 C 
ATOM     17  C           0     135.024 131.411 142.369  0.00  0.00     0.093 C 
ATOM     18  C           0     135.866 132.689 142.121  0.00  0.00     0.209 C 
ATOM     19  H           0     136.418 134.084 146.937  0.00  0.00     0.178 HD
ATOM     20  H           0     136.612 136.555 144.294  0.00  0.00     0.178 HD
ATOM     21  H           0     133.612 134.335 142.681  0.00  0.00     0.180 HD
ENDROOT
BRANCH   6  22
ATOM     22  C           0     138.329 132.865 144.813  0.00  0.00     0.206 C 
BRANCH  22  23
ATOM     23  O           0     138.969 132.503 146.065  0.00  0.00    -0.320 OA
BRANCH  23  24
ATOM     24  C           0     138.919 131.235 146.502  0.00  0.00     0.254 C 
ATOM     25  C           0     140.188 130.515 146.876  0.00  0.00     0.126 C 
ATOM     26  O           0     137.854 130.671 146.596  0.00  0.00    -0.266 OA
ENDBRANCH  23  24
ENDBRANCH  22  23
ENDBRANCH   6  22
BRANCH  18  27
ATOM     27  O           0     135.462 133.324 140.908  0.00  0.00    -0.362 OA
ATOM     28  H           0     135.074 134.175 141.153  0.00  0.00     0.213 HD
ENDBRANCH  18  27
BRANCH  18  29
ATOM     29  O           0     137.258 132.368 142.079  0.00  0.00    -0.362 OA
ATOM     30  H           0     137.464 132.142 141.161  0.00  0.00     0.213 HD
ENDBRANCH  18  29
TORSDOF 5
ENDMDL
MODEL 3
REMARK VINA RESULT:      -6.6      2.823      4.850
REMARK  5 active torsions:
REMARK  status: ('A' for Active; 'I' for Inactive)
REMARK    1  A    between atoms: C_6  and  C_7 
REMARK    2  A    between atoms: C_7  and  O_8 
REMARK    3  A    between atoms: O_8  and  C_9 
REMARK    4  A    between atoms: C_23  and  O_24 
REMARK    5  A    between atoms: C_23  and  O_25 
ROOT
ATOM      1  N           0     139.682 130.590 146.040  0.00  0.00    -0.235 N 
ATOM      2  H           0     140.435 130.740 145.447  0.00  0.00     0.174 HD
ATOM      3  H           0     139.722 129.884 146.704  0.00  0.00     0.174 HD
ATOM      4  C           0     138.620 131.340 145.949  0.00  0.00     0.672 C 
ATOM      5  N           0     138.519 132.364 145.023  0.00  0.00    -0.218 N 
ATOM      6  C           0     137.191 132.729 144.540  0.00  0.00     0.151 C 
ATOM      7  C           0     136.207 132.981 145.666  0.00  0.00     0.180 C 
ATOM      8  N           0     136.474 134.309 146.258  0.00  0.00    -0.216 N 
ATOM      9  C           0     136.323 134.195 147.618  0.00  0.00     0.670 C 
ATOM     10  N           0     136.123 135.204 148.420  0.00  0.00    -0.235 N 
ATOM     11  H           0     136.074 136.105 148.062  0.00  0.00     0.174 HD
ATOM     12  H           0     136.024 135.055 149.372  0.00  0.00     0.174 HD
ATOM     13  C           0     136.350 132.024 146.841  0.00  0.00     0.217 C 
ATOM     14  N           0     136.407 132.889 148.030  0.00  0.00    -0.191 N 
ATOM     15  N           0     137.531 131.163 146.761  0.00  0.00    -0.183 N 
ATOM     16  C           0     137.264 130.049 147.688  0.00  0.00     0.150 C 
ATOM     17  C           0     135.756 129.753 147.509  0.00  0.00     0.093 C 
ATOM     18  C           0     135.151 131.065 146.948  0.00  0.00     0.209 C 
ATOM     19  H           0     139.311 132.826 144.704  0.00  0.00     0.178 HD
ATOM     20  H           0     136.713 135.115 145.773  0.00  0.00     0.178 HD
ATOM     21  H           0     136.488 132.587 148.948  0.00  0.00     0.180 HD
ENDROOT
BRANCH   6  22
ATOM     22  C           0     136.655 131.597 143.662  0.00  0.00     0.206 C 
BRANCH  22  23
ATOM     23  O           0     135.940 132.159 142.531  0.00  0.00    -0.320 OA
BRANCH  23  24
ATOM     24  C           0     134.599 132.117 142.497  0.00  0.00     0.254 C 
ATOM     25  C           0     133.808 133.390 142.345  0.00  0.00     0.126 C 
ATOM     26  O           0     134.025 131.057 142.589  0.00  0.00    -0.266 OA
ENDBRANCH  23  24
ENDBRANCH  22  23
ENDBRANCH   6  22
BRANCH  18  27
ATOM     27  O           0     134.170 131.585 147.846  0.00  0.00    -0.362 OA
ATOM     28  H           0     134.493 131.417 148.741  0.00  0.00     0.213 HD
ENDBRANCH  18  27
BRANCH  18  29
ATOM     29  O           0     134.579 130.839 145.659  0.00  0.00    -0.362 OA
ATOM     30  H           0     134.990 130.037 145.308  0.00  0.00     0.213 HD
ENDBRANCH  18  29
TORSDOF 5
ENDMDL
MODEL 4
REMARK VINA RESULT:      -6.3      8.034     10.385
REMARK  5 active torsions:
REMARK  status: ('A' for Active; 'I' for Inactive)
REMARK    1  A    between atoms: C_6  and  C_7 
REMARK    2  A    between atoms: C_7  and  O_8 
REMARK    3  A    between atoms: O_8  and  C_9 
REMARK    4  A    between atoms: C_23  and  O_24 
REMARK    5  A    between atoms: C_23  and  O_25 
ROOT
ATOM      1  N           0     128.869 134.258 132.084  0.00  0.00    -0.235 N 
ATOM      2  H           0     128.161 133.848 131.562  0.00  0.00     0.174 HD
ATOM      3  H           0     129.014 135.216 132.037  0.00  0.00     0.174 HD
ATOM      4  C           0     129.619 133.522 132.856  0.00  0.00     0.672 C 
ATOM      5  N           0     129.446 132.153 132.963  0.00  0.00    -0.218 N 
ATOM      6  C           0     130.608 131.334 133.292  0.00  0.00     0.151 C 
ATOM      7  C           0     131.352 131.837 134.514  0.00  0.00     0.180 C 
ATOM      8  N           0     130.604 131.453 135.730  0.00  0.00    -0.216 N 
ATOM      9  C           0     130.670 132.507 136.608  0.00  0.00     0.670 C 
ATOM     10  N           0     130.450 132.408 137.890  0.00  0.00    -0.235 N 
ATOM     11  H           0     130.222 131.548 138.278  0.00  0.00     0.174 HD
ATOM     12  H           0     130.514 133.193 138.455  0.00  0.00     0.174 HD
ATOM     13  C           0     131.443 133.352 134.606  0.00  0.00     0.217 C 
ATOM     14  N           0     130.998 133.678 135.971  0.00  0.00    -0.191 N 
ATOM     15  N           0     130.632 134.054 133.609  0.00  0.00    -0.183 N 
ATOM     16  C           0     131.181 135.421 133.554  0.00  0.00     0.150 C 
ATOM     17  C           0     132.710 135.227 133.691  0.00  0.00     0.093 C 
ATOM     18  C           0     132.881 133.855 134.391  0.00  0.00     0.209 C 
ATOM     19  H           0     128.575 131.749 132.823  0.00  0.00     0.178 HD
ATOM     20  H           0     130.149 130.609 135.881  0.00  0.00     0.178 HD
ATOM     21  H           0     130.947 134.566 136.355  0.00  0.00     0.180 HD
ENDROOT
BRANCH   6  22
ATOM     22  C           0     131.566 131.332 132.099  0.00  0.00     0.206 C 
BRANCH  22  23
ATOM     23  O           0     132.633 130.377 132.336  0.00  0.00    -0.320 OA
BRANCH  23  24
ATOM     24  C           0     132.371 129.061 132.321  0.00  0.00     0.254 C 
ATOM     25  C           0     131.720 128.434 131.116  0.00  0.00     0.126 C 
ATOM     26  O           0     132.656 128.378 133.277  0.00  0.00    -0.266 OA
ENDBRANCH  23  24
ENDBRANCH  22  23
ENDBRANCH   6  22
BRANCH  18  27
ATOM     27  O           0     133.550 134.014 135.642  0.00  0.00    -0.362 OA
ATOM     28  H           0     132.942 134.485 136.227  0.00  0.00     0.213 HD
ENDBRANCH  18  27
BRANCH  18  29
ATOM     29  O           0     133.601 132.953 133.549  0.00  0.00    -0.362 OA
ATOM     30  H           0     133.168 132.092 133.627  0.00  0.00     0.213 HD
ENDBRANCH  18  29
TORSDOF 5
ENDMDL
MODEL 5
REMARK VINA RESULT:      -6.2      2.783      4.589
REMARK  5 active torsions:
REMARK  status: ('A' for Active; 'I' for Inactive)
REMARK    1  A    between atoms: C_6  and  C_7 
REMARK    2  A    between atoms: C_7  and  O_8 
REMARK    3  A    between atoms: O_8  and  C_9 
REMARK    4  A    between atoms: C_23  and  O_24 
REMARK    5  A    between atoms: C_23  and  O_25 
ROOT
ATOM      1  N           0     134.912 129.776 145.587  0.00  0.00    -0.235 N 
ATOM      2  H           0     134.560 129.345 144.793  0.00  0.00     0.174 HD
ATOM      3  H           0     134.666 129.448 146.466  0.00  0.00     0.174 HD
ATOM      4  C           0     135.721 130.792 145.472  0.00  0.00     0.672 C 
ATOM      5  N           0     136.106 131.292 144.240  0.00  0.00    -0.218 N 
ATOM      6  C           0     136.453 132.706 144.146  0.00  0.00     0.151 C 
ATOM      7  C           0     137.466 133.131 145.192  0.00  0.00     0.180 C 
ATOM      8  N           0     138.809 132.666 144.786  0.00  0.00    -0.216 N 
ATOM      9  C           0     139.456 132.230 145.917  0.00  0.00     0.670 C 
ATOM     10  N           0     140.749 132.093 146.013  0.00  0.00    -0.235 N 
ATOM     11  H           0     141.317 132.305 145.256  0.00  0.00     0.174 HD
ATOM     12  H           0     141.143 131.781 146.842  0.00  0.00     0.174 HD
ATOM     13  C           0     137.256 132.491 146.556  0.00  0.00     0.217 C 
ATOM     14  N           0     138.574 131.956 146.932  0.00  0.00    -0.191 N 
ATOM     15  N           0     136.240 131.437 146.564  0.00  0.00    -0.183 N 
ATOM     16  C           0     135.864 131.269 147.979  0.00  0.00     0.150 C 
ATOM     17  C           0     135.863 132.708 148.549  0.00  0.00     0.093 C 
ATOM     18  C           0     136.789 133.516 147.605  0.00  0.00     0.209 C 
ATOM     19  H           0     136.144 130.716 143.460  0.00  0.00     0.178 HD
ATOM     20  H           0     139.168 132.667 143.884  0.00  0.00     0.178 HD
ATOM     21  H           0     138.784 131.492 147.757  0.00  0.00     0.180 HD
ENDROOT
BRANCH   6  22
ATOM     22  C           0     135.183 133.540 144.324  0.00  0.00     0.206 C 
BRANCH  22  23
ATOM     23  O           0     134.513 133.681 143.044  0.00  0.00    -0.320 OA
BRANCH  23  24
ATOM     24  C           0     134.241 134.903 142.559  0.00  0.00     0.254 C 
ATOM     25  C           0     134.780 136.126 143.253  0.00  0.00     0.126 C 
ATOM     26  O           0     133.562 135.021 141.567  0.00  0.00    -0.266 OA
ENDBRANCH  23  24
ENDBRANCH  22  23
ENDBRANCH   6  22
BRANCH  18  27
ATOM     27  O           0     137.904 134.039 148.328  0.00  0.00    -0.362 OA
ATOM     28  H           0     138.343 134.672 147.744  0.00  0.00     0.213 HD
ENDBRANCH  18  27
BRANCH  18  29
ATOM     29  O           0     136.060 134.572 146.977  0.00  0.00    -0.362 OA
ATOM     30  H           0     135.122 134.351 147.059  0.00  0.00     0.213 HD
ENDBRANCH  18  29
TORSDOF 5
ENDMDL
MODEL 6
REMARK VINA RESULT:      -6.1      8.859     11.522
REMARK  5 active torsions:
REMARK  status: ('A' for Active; 'I' for Inactive)
REMARK    1  A    between atoms: C_6  and  C_7 
REMARK    2  A    between atoms: C_7  and  O_8 
REMARK    3  A    between atoms: O_8  and  C_9 
REMARK    4  A    between atoms: C_23  and  O_24 
REMARK    5  A    between atoms: C_23  and  O_25 
ROOT
ATOM      1  N           0     128.664 132.627 130.875  0.00  0.00    -0.235 N 
ATOM      2  H           0     127.761 132.314 130.707  0.00  0.00     0.174 HD
ATOM      3  H           0     129.057 133.304 130.303  0.00  0.00     0.174 HD
ATOM      4  C           0     129.346 132.141 131.874  0.00  0.00     0.672 C 
ATOM      5  N           0     128.826 131.178 132.722  0.00  0.00    -0.218 N 
ATOM      6  C           0     129.753 130.256 133.371  0.00  0.00     0.151 C 
ATOM      7  C           0     130.894 130.969 134.070  0.00  0.00     0.180 C 
ATOM      8  N           0     130.404 131.540 135.343  0.00  0.00    -0.216 N 
ATOM      9  C           0     130.987 132.774 135.497  0.00  0.00     0.670 C 
ATOM     10  N           0     131.081 133.403 136.635  0.00  0.00    -0.235 N 
ATOM     11  H           0     130.727 132.999 137.443  0.00  0.00     0.174 HD
ATOM     12  H           0     131.506 134.273 136.674  0.00  0.00     0.174 HD
ATOM     13  C           0     131.430 132.175 133.314  0.00  0.00     0.217 C 
ATOM     14  N           0     131.458 133.263 134.304  0.00  0.00    -0.191 N 
ATOM     15  N           0     130.625 132.547 132.149  0.00  0.00    -0.183 N 
ATOM     16  C           0     131.505 133.392 131.322  0.00  0.00     0.150 C 
ATOM     17  C           0     132.899 132.732 131.446  0.00  0.00     0.093 C 
ATOM     18  C           0     132.848 131.927 132.769  0.00  0.00     0.209 C 
ATOM     19  H           0     127.870 131.119 132.881  0.00  0.00     0.178 HD
ATOM     20  H           0     129.783 131.118 135.959  0.00  0.00     0.178 HD
ATOM     21  H           0     131.760 134.171 134.143  0.00  0.00     0.180 HD
ENDROOT
BRANCH   6  22
ATOM     22  C           0     130.335 129.315 132.315  0.00  0.00     0.206 C 
BRANCH  22  23
ATOM     23  O           0     130.296 127.950 132.809  0.00  0.00    -0.320 OA
BRANCH  23  24
ATOM     24  C           0     131.437 127.265 132.979  0.00  0.00     0.254 C 
ATOM     25  C           0     131.441 125.764 132.855  0.00  0.00     0.126 C 
ATOM     26  O           0     132.462 127.853 133.234  0.00  0.00    -0.266 OA
ENDBRANCH  23  24
ENDBRANCH  22  23
ENDBRANCH   6  22
BRANCH  18  27
ATOM     27  O           0     133.830 132.411 133.685  0.00  0.00    -0.362 OA
ATOM     28  H           0     134.046 131.678 134.277  0.00  0.00     0.213 HD
ENDBRANCH  18  27
BRANCH  18  29
ATOM     29  O           0     133.045 130.535 132.513  0.00  0.00    -0.362 OA
ATOM     30  H           0     132.386 130.059 133.038  0.00  0.00     0.213 HD
ENDBRANCH  18  29
TORSDOF 5
ENDMDL
MODEL 7
REMARK VINA RESULT:      -6.1      2.907      5.823
REMARK  5 active torsions:
REMARK  status: ('A' for Active; 'I' for Inactive)
REMARK    1  A    between atoms: C_6  and  C_7 
REMARK    2  A    between atoms: C_7  and  O_8 
REMARK    3  A    between atoms: O_8  and  C_9 
REMARK    4  A    between atoms: C_23  and  O_24 
REMARK    5  A    between atoms: C_23  and  O_25 
ROOT
ATOM      1  N           0     138.809 130.786 145.489  0.00  0.00    -0.235 N 
ATOM      2  H           0     138.956 130.067 146.122  0.00  0.00     0.174 HD
ATOM      3  H           0     139.553 131.142 144.978  0.00  0.00     0.174 HD
ATOM      4  C           0     137.611 131.271 145.320  0.00  0.00     0.672 C 
ATOM      5  N           0     136.517 130.793 146.020  0.00  0.00    -0.218 N 
ATOM      6  C           0     135.408 131.706 146.276  0.00  0.00     0.151 C 
ATOM      7  C           0     134.925 132.407 145.021  0.00  0.00     0.180 C 
ATOM      8  N           0     134.107 131.469 144.224  0.00  0.00    -0.216 N 
ATOM      9  C           0     134.416 131.670 142.901  0.00  0.00     0.670 C 
ATOM     10  N           0     133.658 131.299 141.907  0.00  0.00    -0.235 N 
ATOM     11  H           0     132.816 130.849 142.080  0.00  0.00     0.174 HD
ATOM     12  H           0     133.936 131.473 140.994  0.00  0.00     0.174 HD
ATOM     13  C           0     136.040 132.817 144.071  0.00  0.00     0.217 C 
ATOM     14  N           0     135.621 132.312 142.753  0.00  0.00    -0.191 N 
ATOM     15  N           0     137.354 132.291 144.440  0.00  0.00    -0.183 N 
ATOM     16  C           0     138.327 133.127 143.715  0.00  0.00     0.150 C 
ATOM     17  C           0     137.730 134.553 143.780  0.00  0.00     0.093 C 
ATOM     18  C           0     136.213 134.345 144.014  0.00  0.00     0.209 C 
ATOM     19  H           0     136.489 129.874 146.332  0.00  0.00     0.178 HD
ATOM     20  H           0     133.468 130.827 144.572  0.00  0.00     0.178 HD
ATOM     21  H           0     136.111 132.416 141.923  0.00  0.00     0.180 HD
ENDROOT
BRANCH   6  22
ATOM     22  C           0     135.859 132.761 147.287  0.00  0.00     0.206 C 
BRANCH  22  23
ATOM     23  O           0     135.968 132.157 148.602  0.00  0.00    -0.320 OA
BRANCH  23  24
ATOM     24  C           0     134.910 131.536 149.146  0.00  0.00     0.254 C 
ATOM     25  C           0     135.016 130.094 149.568  0.00  0.00     0.126 C 
ATOM     26  O           0     133.870 132.134 149.295  0.00  0.00    -0.266 OA
ENDBRANCH  23  24
ENDBRANCH  22  23
ENDBRANCH   6  22
BRANCH  18  27
ATOM     27  O           0     135.461 134.896 142.932  0.00  0.00    -0.362 OA
ATOM     28  H           0     135.545 134.281 142.191  0.00  0.00     0.213 HD
ENDBRANCH  18  27
BRANCH  18  29
ATOM     29  O           0     135.813 134.936 145.252  0.00  0.00    -0.362 OA
ATOM     30  H           0     135.990 135.884 145.178  0.00  0.00     0.213 HD
ENDBRANCH  18  29
TORSDOF 5
ENDMDL
MODEL 8
REMARK VINA RESULT:      -6.1      4.217      6.509
REMARK  5 active torsions:
REMARK  status: ('A' for Active; 'I' for Inactive)
REMARK    1  A    between atoms: C_6  and  C_7 
REMARK    2  A    between atoms: C_7  and  O_8 
REMARK    3  A    between atoms: O_8  and  C_9 
REMARK    4  A    between atoms: C_23  and  O_24 
REMARK    5  A    between atoms: C_23  and  O_25 
ROOT
ATOM      1  N           0     136.105 134.238 148.117  0.00  0.00    -0.235 N 
ATOM      2  H           0     136.588 135.079 148.140  0.00  0.00     0.174 HD
ATOM      3  H           0     135.451 134.037 148.804  0.00  0.00     0.174 HD
ATOM      4  C           0     136.331 133.382 147.160  0.00  0.00     0.672 C 
ATOM      5  N           0     137.250 133.627 146.154  0.00  0.00    -0.218 N 
ATOM      6  C           0     137.905 132.486 145.523  0.00  0.00     0.151 C 
ATOM      7  C           0     136.920 131.434 145.050  0.00  0.00     0.180 C 
ATOM      8  N           0     136.281 131.894 143.799  0.00  0.00    -0.216 N 
ATOM      9  C           0     134.956 131.538 143.855  0.00  0.00     0.670 C 
ATOM     10  N           0     134.176 131.451 142.813  0.00  0.00    -0.235 N 
ATOM     11  H           0     134.526 131.643 141.928  0.00  0.00     0.174 HD
ATOM     12  H           0     133.248 131.193 142.922  0.00  0.00     0.174 HD
ATOM     13  C           0     135.749 131.209 145.995  0.00  0.00     0.217 C 
ATOM     14  N           0     134.552 131.286 145.142  0.00  0.00    -0.191 N 
ATOM     15  N           0     135.678 132.180 147.088  0.00  0.00    -0.183 N 
ATOM     16  C           0     134.809 131.559 148.104  0.00  0.00     0.150 C 
ATOM     17  C           0     135.197 130.061 148.077  0.00  0.00     0.093 C 
ATOM     18  C           0     135.818 129.831 146.676  0.00  0.00     0.209 C 
ATOM     19  H           0     137.452 134.535 145.876  0.00  0.00     0.178 HD
ATOM     20  H           0     136.719 132.362 143.070  0.00  0.00     0.178 HD
ATOM     21  H           0     133.636 131.176 145.439  0.00  0.00     0.180 HD
ENDROOT
BRANCH   6  22
ATOM     22  C           0     138.862 131.846 146.531  0.00  0.00     0.206 C 
BRANCH  22  23
ATOM     23  O           0     139.851 132.824 146.947  0.00  0.00    -0.320 OA
BRANCH  23  24
ATOM     24  C           0     139.988 133.128 148.247  0.00  0.00     0.254 C 
ATOM     25  C           0     141.123 132.539 149.044  0.00  0.00     0.126 C 
ATOM     26  O           0     139.200 133.875 148.779  0.00  0.00    -0.266 OA
ENDBRANCH  23  24
ENDBRANCH  22  23
ENDBRANCH   6  22
BRANCH  18  27
ATOM     27  O           0     135.056 128.870 145.945  0.00  0.00    -0.362 OA
ATOM     28  H           0     135.277 128.002 146.309  0.00  0.00     0.213 HD
ENDBRANCH  18  27
BRANCH  18  29
ATOM     29  O           0     137.176 129.405 146.798  0.00  0.00    -0.362 OA
ATOM     30  H           0     137.600 130.001 147.430  0.00  0.00     0.213 HD
ENDBRANCH  18  29
TORSDOF 5
ENDMDL
MODEL 9
REMARK VINA RESULT:      -6.1      2.704      3.827
REMARK  5 active torsions:
REMARK  status: ('A' for Active; 'I' for Inactive)
REMARK    1  A    between atoms: C_6  and  C_7 
REMARK    2  A    between atoms: C_7  and  O_8 
REMARK    3  A    between atoms: O_8  and  C_9 
REMARK    4  A    between atoms: C_23  and  O_24 
REMARK    5  A    between atoms: C_23  and  O_25 
ROOT
ATOM      1  N           0     136.251 134.893 147.981  0.00  0.00    -0.235 N 
ATOM      2  H           0     135.492 135.487 147.875  0.00  0.00     0.174 HD
ATOM      3  H           0     136.888 135.044 148.697  0.00  0.00     0.174 HD
ATOM      4  C           0     136.411 133.887 147.168  0.00  0.00     0.672 C 
ATOM      5  N           0     135.525 133.625 146.137  0.00  0.00    -0.218 N 
ATOM      6  C           0     136.031 132.950 144.946  0.00  0.00     0.151 C 
ATOM      7  C           0     136.800 131.684 145.273  0.00  0.00     0.180 C 
ATOM      8  N           0     135.843 130.607 145.606  0.00  0.00    -0.216 N 
ATOM      9  C           0     136.372 129.893 146.654  0.00  0.00     0.670 C 
ATOM     10  N           0     136.004 128.684 146.975  0.00  0.00    -0.235 N 
ATOM     11  H           0     135.315 128.233 146.461  0.00  0.00     0.174 HD
ATOM     12  H           0     136.419 128.235 147.727  0.00  0.00     0.174 HD
ATOM     13  C           0     137.675 131.791 146.513  0.00  0.00     0.217 C 
ATOM     14  N           0     137.336 130.608 147.320  0.00  0.00    -0.191 N 
ATOM     15  N           0     137.469 133.023 147.276  0.00  0.00    -0.183 N 
ATOM     16  C           0     138.664 133.157 148.128  0.00  0.00     0.150 C 
ATOM     17  C           0     139.831 132.680 147.231  0.00  0.00     0.093 C 
ATOM     18  C           0     139.172 131.773 146.162  0.00  0.00     0.209 C 
ATOM     19  H           0     134.592 133.883 146.205  0.00  0.00     0.178 HD
ATOM     20  H           0     134.996 130.436 145.165  0.00  0.00     0.178 HD
ATOM     21  H           0     137.728 130.372 148.175  0.00  0.00     0.180 HD
ENDROOT
BRANCH   6  22
ATOM     22  C           0     136.956 133.906 144.191  0.00  0.00     0.206 C 
BRANCH  22  23
ATOM     23  O           0     136.299 134.359 142.979  0.00  0.00    -0.320 OA
BRANCH  23  24
ATOM     24  C           0     135.060 134.872 143.037  0.00  0.00     0.254 C 
ATOM     25  C           0     133.952 134.259 142.221  0.00  0.00     0.126 C 
ATOM     26  O           0     134.834 135.826 143.744  0.00  0.00    -0.266 OA
ENDBRANCH  23  24
ENDBRANCH  22  23
ENDBRANCH   6  22
BRANCH  18  27
ATOM     27  O           0     139.693 130.446 146.245  0.00  0.00    -0.362 OA
ATOM     28  H           0     140.489 130.491 146.791  0.00  0.00     0.213 HD
ENDBRANCH  18  27
BRANCH  18  29
ATOM     29  O           0     139.382 132.311 144.854  0.00  0.00    -0.362 OA
ATOM     30  H           0     138.563 132.759 144.603  0.00  0.00     0.213 HD
ENDBRANCH  18  29
TORSDOF 5
ENDMDL
