# created with PyMOL 2.3.4
@<TRIPOS>MOLECULE
ligand_out_0001
30 32 1                 
SMALL
USER_CHARGES
@<TRIPOS>ATOM
1	   N	134.898	136.700	143.106	N.3	1	UNK0	-0.235	
2	   N	133.747	134.651	142.996	N.3	1	UNK0	-0.218	
3	   N	134.162	132.097	144.669	N.3	1	UNK0	-0.216	
4	   N	134.927	131.650	146.863	N.3	1	UNK0	-0.235	
5	   N	136.113	133.036	145.358	N.3	1	UNK0	-0.191	
6	   N	136.000	134.695	143.601	N.3	1	UNK0	-0.183	
7	   C	134.886	135.403	143.232	C.3	1	UNK0	0.672	
8	   C	133.911	133.273	142.544	C.3	1	UNK0	0.151	
9	   C	134.859	132.477	143.421	C.3	1	UNK0	0.180	
10	   C	135.060	132.226	145.701	C.3	1	UNK0	0.670	
11	   C	136.067	133.265	143.904	C.3	1	UNK0	0.217	
12	   C	137.385	135.184	143.720	C.3	1	UNK0	0.150	
13	   C	138.247	134.043	143.130	C.3	1	UNK0	0.093	
14	   C	137.371	132.770	143.255	C.3	1	UNK0	0.209	
15	   C	134.456	133.283	141.115	C.2	1	UNK0	0.206	
16	   C	133.323	134.829	139.636	C.2	1	UNK0	0.254	
17	   C	133.319	134.977	138.137	C.3	1	UNK0	0.126	
18	   O	133.384	133.608	140.191	O.2	1	UNK0	-0.320	
19	   O	133.273	135.810	140.340	O.co2	1	UNK0	-0.266	
20	   O	138.013	131.804	144.088	O.2	1	UNK0	-0.362	
21	   O	137.105	132.219	141.964	O.2	1	UNK0	-0.362	
22	   H	134.092	137.169	142.839	 H	1	UNK0	0.174	
23	   H	135.712	137.197	143.283	 H	1	UNK0	0.174	
24	   H	134.156	131.088	147.041	 H	1	UNK0	0.174	
25	   H	135.599	131.782	147.549	 H	1	UNK0	0.174	
26	   H	132.864	135.030	143.130	 H	1	UNK0	0.178	
27	   H	133.239	131.808	144.745	 H	1	UNK0	0.178	
28	   H	136.776	133.394	145.968	 H	1	UNK0	0.180	
29	   H	138.256	132.258	144.907	 H	1	UNK0	0.213	
30	   H	137.107	132.958	141.340	 H	1	UNK0	0.213	
@<TRIPOS>BOND
1 1 7 1
2 1 22 1
3 1 23 1
4 2 8 1
5 2 26 1
6 3 10 1
7 3 27 1
8 4 24 1
9 4 25 1
10 5 28 1
11 6 12 1
12 2 7 1
13 6 7 1
14 8 9 1
15 8 15 1
16 3 9 1
17 9 11 1
18 4 10 1
19 5 10 1
20 5 11 1
21 6 11 1
22 11 14 1
23 12 13 1
24 13 14 1
25 14 20 2
26 14 21 2
27 15 18 2
28 16 17 1
29 16 19 2
30 16 18 2
31 20 29 1
32 21 30 1
@<TRIPOS>SUBSTRUCTURE
1	UNK0	1	GROUP	1 ****	UNK
