MODEL 1
REMARK VINA RESULT:      -7.7      0.000      0.000
REMARK  7 active torsions:
REMARK  status: ('A' for Active; 'I' for Inactive)
REMARK    1  A    between atoms: C_6  and  C_7 
REMARK    2  A    between atoms: C_7  and  O_8 
REMARK    3  A    between atoms: O_8  and  C_9 
REMARK       I    between atoms: C_9  and  N_10 
REMARK    4  A    between atoms: C_22  and  O_23 
REMARK    5  A    between atoms: O_23  and  S_24 
REMARK    6  A    between atoms: C_28  and  O_29 
REMARK    7  A    between atoms: C_28  and  O_30 
ROOT
ATOM      1  N           0     138.860 130.383 145.978  0.00  0.00    -0.235 N 
ATOM      2  H           0     138.692 129.485 146.303  0.00  0.00     0.174 HD
ATOM      3  H           0     139.762 130.739 145.982  0.00  0.00     0.174 HD
ATOM      4  C           0     137.875 131.109 145.528  0.00  0.00     0.672 C 
ATOM      5  N           0     136.572 130.643 145.497  0.00  0.00    -0.218 N 
ATOM      6  C           0     135.487 131.616 145.597  0.00  0.00     0.151 C 
ATOM      7  C           0     135.631 132.756 144.609  0.00  0.00     0.180 C 
ATOM      8  N           0     135.228 132.289 143.265  0.00  0.00    -0.216 N 
ATOM      9  C           0     136.098 132.840 142.356  0.00  0.00     0.670 C 
ATOM     10  N           0     135.851 132.951 141.081  0.00  0.00    -0.235 N 
ATOM     11  H           0     135.009 132.632 140.721  0.00  0.00     0.174 HD
ATOM     12  H           0     136.510 133.352 140.492  0.00  0.00     0.174 HD
ATOM     13  C           0     137.062 133.234 144.415  0.00  0.00     0.220 C 
ATOM     14  N           0     137.259 133.260 142.956  0.00  0.00    -0.191 N 
ATOM     15  N           0     138.062 132.384 145.063  0.00  0.00    -0.180 N 
ATOM     16  C           0     139.277 133.213 145.156  0.00  0.00     0.183 C 
ATOM     17  C           0     138.751 134.628 145.493  0.00  0.00     0.230 C 
ATOM     18  C           0     137.282 134.640 144.998  0.00  0.00     0.238 C 
ATOM     19  H           0     136.384 129.696 145.410  0.00  0.00     0.178 HD
ATOM     20  H           0     134.486 131.699 143.062  0.00  0.00     0.178 HD
ATOM     21  H           0     138.070 133.531 142.498  0.00  0.00     0.180 HD
ENDROOT
BRANCH   6  22
ATOM     22  C           0     135.471 132.193 147.015  0.00  0.00     0.208 C 
BRANCH  22  23
ATOM     23  O           0     135.443 131.107 147.978  0.00  0.00    -0.302 OA
BRANCH  23  24
ATOM     24  C           0     134.278 130.743 148.548  0.00  0.00     0.358 C 
ATOM     25  N           0     133.365 131.681 148.870  0.00  0.00    -0.346 N 
ATOM     26  H           0     133.547 132.616 148.692  0.00  0.00     0.161 HD
ATOM     27  H           0     132.526 131.419 149.280  0.00  0.00     0.161 HD
ATOM     28  O           0     134.051 129.571 148.770  0.00  0.00    -0.239 OA
ENDBRANCH  23  24
ENDBRANCH  22  23
ENDBRANCH   6  22
BRANCH  18  29
ATOM     29  O           0     137.105 135.637 143.989  0.00  0.00    -0.360 OA
ATOM     30  H           0     137.523 136.445 144.317  0.00  0.00     0.213 HD
ENDBRANCH  18  29
BRANCH  18  31
ATOM     31  O           0     136.390 134.871 146.090  0.00  0.00    -0.360 OA
ATOM     32  H           0     136.936 134.970 146.882  0.00  0.00     0.213 HD
ENDBRANCH  18  31
BRANCH  17  33
ATOM     33  O           0     138.805 134.856 146.902  0.00  0.00    -0.244 OA
BRANCH  33  34
ATOM     34  S           0     139.554 136.166 147.107  0.00  0.00     0.252 S 
ATOM     35  O           0     139.603 136.819 145.808  0.00  0.00    -0.572 OA
ATOM     36  O           0     138.788 136.929 148.081  0.00  0.00    -0.572 OA
ATOM     37  O           0     140.876 135.810 147.599  0.00  0.00    -0.572 OA
ENDBRANCH  33  34
ENDBRANCH  17  33
TORSDOF 7
ENDMDL
MODEL 2
REMARK VINA RESULT:      -7.5      3.036      5.197
REMARK  7 active torsions:
REMARK  status: ('A' for Active; 'I' for Inactive)
REMARK    1  A    between atoms: C_6  and  C_7 
REMARK    2  A    between atoms: C_7  and  O_8 
REMARK    3  A    between atoms: O_8  and  C_9 
REMARK       I    between atoms: C_9  and  N_10 
REMARK    4  A    between atoms: C_22  and  O_23 
REMARK    5  A    between atoms: O_23  and  S_24 
REMARK    6  A    between atoms: C_28  and  O_29 
REMARK    7  A    between atoms: C_28  and  O_30 
ROOT
ATOM      1  N           0     138.736 134.842 147.789  0.00  0.00    -0.235 N 
ATOM      2  H           0     139.577 135.302 147.939  0.00  0.00     0.174 HD
ATOM      3  H           0     138.189 134.573 148.543  0.00  0.00     0.174 HD
ATOM      4  C           0     138.339 134.590 146.573  0.00  0.00     0.672 C 
ATOM      5  N           0     139.082 134.958 145.465  0.00  0.00    -0.218 N 
ATOM      6  C           0     138.953 134.158 144.250  0.00  0.00     0.151 C 
ATOM      7  C           0     137.510 133.954 143.835  0.00  0.00     0.180 C 
ATOM      8  N           0     137.006 135.190 143.199  0.00  0.00    -0.216 N 
ATOM      9  C           0     135.713 135.376 143.623  0.00  0.00     0.670 C 
ATOM     10  N           0     134.845 136.134 143.013  0.00  0.00    -0.235 N 
ATOM     11  H           0     135.098 136.609 142.206  0.00  0.00     0.174 HD
ATOM     12  H           0     133.945 136.222 143.366  0.00  0.00     0.174 HD
ATOM     13  C           0     136.556 133.725 144.996  0.00  0.00     0.220 C 
ATOM     14  N           0     135.448 134.668 144.768  0.00  0.00    -0.191 N 
ATOM     15  N           0     137.163 133.939 146.311  0.00  0.00    -0.180 N 
ATOM     16  C           0     136.272 133.257 147.267  0.00  0.00     0.183 C 
ATOM     17  C           0     135.832 131.970 146.530  0.00  0.00     0.230 C 
ATOM     18  C           0     136.019 132.284 145.024  0.00  0.00     0.238 C 
ATOM     19  H           0     139.672 135.728 145.494  0.00  0.00     0.178 HD
ATOM     20  H           0     137.499 135.766 142.595  0.00  0.00     0.178 HD
ATOM     21  H           0     134.663 134.768 145.329  0.00  0.00     0.180 HD
ENDROOT
BRANCH   6  22
ATOM     22  C           0     139.596 132.790 144.489  0.00  0.00     0.208 C 
BRANCH  22  23
ATOM     23  O           0     140.377 132.831 145.712  0.00  0.00    -0.302 OA
BRANCH  23  24
ATOM     24  C           0     140.368 131.777 146.551  0.00  0.00     0.358 C 
ATOM     25  N           0     139.518 130.753 146.336  0.00  0.00    -0.346 N 
ATOM     26  H           0     138.914 130.776 145.578  0.00  0.00     0.161 HD
ATOM     27  H           0     139.510 129.994 146.940  0.00  0.00     0.161 HD
ATOM     28  O           0     141.125 131.749 147.500  0.00  0.00    -0.239 OA
ENDBRANCH  23  24
ENDBRANCH  22  23
ENDBRANCH   6  22
BRANCH  18  29
ATOM     29  O           0     134.767 132.199 144.339  0.00  0.00    -0.360 OA
ATOM     30  H           0     134.113 132.646 144.895  0.00  0.00     0.213 HD
ENDBRANCH  18  29
BRANCH  18  31
ATOM     31  O           0     136.968 131.389 144.442  0.00  0.00    -0.360 OA
ATOM     32  H           0     136.947 131.540 143.487  0.00  0.00     0.213 HD
ENDBRANCH  18  31
BRANCH  17  33
ATOM     33  O           0     136.657 130.869 146.917  0.00  0.00    -0.244 OA
BRANCH  33  34
ATOM     34  S           0     135.723 129.705 147.219  0.00  0.00     0.252 S 
ATOM     35  O           0     135.003 129.426 145.987  0.00  0.00    -0.572 OA
ATOM     36  O           0     136.571 128.595 147.628  0.00  0.00    -0.572 OA
ATOM     37  O           0     134.842 130.151 148.287  0.00  0.00    -0.572 OA
ENDBRANCH  33  34
ENDBRANCH  17  33
TORSDOF 7
ENDMDL
MODEL 3
REMARK VINA RESULT:      -7.3      2.696      5.291
REMARK  7 active torsions:
REMARK  status: ('A' for Active; 'I' for Inactive)
REMARK    1  A    between atoms: C_6  and  C_7 
REMARK    2  A    between atoms: C_7  and  O_8 
REMARK    3  A    between atoms: O_8  and  C_9 
REMARK       I    between atoms: C_9  and  N_10 
REMARK    4  A    between atoms: C_22  and  O_23 
REMARK    5  A    between atoms: O_23  and  S_24 
REMARK    6  A    between atoms: C_28  and  O_29 
REMARK    7  A    between atoms: C_28  and  O_30 
ROOT
ATOM      1  N           0     136.474 134.796 147.324  0.00  0.00    -0.235 N 
ATOM      2  H           0     136.961 135.585 147.609  0.00  0.00     0.174 HD
ATOM      3  H           0     135.904 134.325 147.951  0.00  0.00     0.174 HD
ATOM      4  C           0     136.582 134.373 146.096  0.00  0.00     0.672 C 
ATOM      5  N           0     137.378 135.013 145.163  0.00  0.00    -0.218 N 
ATOM      6  C           0     137.949 134.220 144.078  0.00  0.00     0.151 C 
ATOM      7  C           0     136.910 133.386 143.356  0.00  0.00     0.180 C 
ATOM      8  N           0     136.131 134.256 142.448  0.00  0.00    -0.216 N 
ATOM      9  C           0     134.820 133.854 142.512  0.00  0.00     0.670 C 
ATOM     10  N           0     133.924 134.134 141.607  0.00  0.00    -0.235 N 
ATOM     11  H           0     134.168 134.658 140.829  0.00  0.00     0.174 HD
ATOM     12  H           0     133.013 133.818 141.713  0.00  0.00     0.174 HD
ATOM     13  C           0     135.857 132.776 144.268  0.00  0.00     0.220 C 
ATOM     14  N           0     134.569 133.121 143.645  0.00  0.00    -0.191 N 
ATOM     15  N           0     135.919 133.261 145.648  0.00  0.00    -0.180 N 
ATOM     16  C           0     135.171 132.270 146.442  0.00  0.00     0.183 C 
ATOM     17  C           0     135.545 130.909 145.809  0.00  0.00     0.230 C 
ATOM     18  C           0     135.998 131.247 144.366  0.00  0.00     0.238 C 
ATOM     19  H           0     137.552 135.966 145.227  0.00  0.00     0.178 HD
ATOM     20  H           0     136.483 134.981 141.908  0.00  0.00     0.178 HD
ATOM     21  H           0     133.693 132.871 143.977  0.00  0.00     0.180 HD
ENDROOT
BRANCH   6  22
ATOM     22  C           0     139.014 133.286 144.658  0.00  0.00     0.208 C 
BRANCH  22  23
ATOM     23  O           0     139.659 133.931 145.787  0.00  0.00    -0.302 OA
BRANCH  23  24
ATOM     24  C           0     139.937 133.221 146.898  0.00  0.00     0.358 C 
ATOM     25  N           0     139.142 132.194 147.256  0.00  0.00    -0.346 N 
ATOM     26  H           0     138.371 131.966 146.716  0.00  0.00     0.161 HD
ATOM     27  H           0     139.342 131.683 148.056  0.00  0.00     0.161 HD
ATOM     28  O           0     140.904 133.507 147.575  0.00  0.00    -0.239 OA
ENDBRANCH  23  24
ENDBRANCH  22  23
ENDBRANCH   6  22
BRANCH  18  29
ATOM     29  O           0     135.149 130.602 143.414  0.00  0.00    -0.360 OA
ATOM     30  H           0     134.456 130.152 143.917  0.00  0.00     0.213 HD
ENDBRANCH  18  29
BRANCH  18  31
ATOM     31  O           0     137.358 130.859 144.166  0.00  0.00    -0.360 OA
ATOM     32  H           0     137.581 130.242 144.878  0.00  0.00     0.213 HD
ENDBRANCH  18  31
BRANCH  17  33
ATOM     33  O           0     136.612 130.298 146.538  0.00  0.00    -0.244 OA
BRANCH  33  34
ATOM     34  S           0     136.008 129.129 147.305  0.00  0.00     0.252 S 
ATOM     35  O           0     135.171 129.708 148.343  0.00  0.00    -0.572 OA
ATOM     36  O           0     135.239 128.359 146.339  0.00  0.00    -0.572 OA
ATOM     37  O           0     137.126 128.376 147.850  0.00  0.00    -0.572 OA
ENDBRANCH  33  34
ENDBRANCH  17  33
TORSDOF 7
ENDMDL
MODEL 4
REMARK VINA RESULT:      -7.3      3.419      4.680
REMARK  7 active torsions:
REMARK  status: ('A' for Active; 'I' for Inactive)
REMARK    1  A    between atoms: C_6  and  C_7 
REMARK    2  A    between atoms: C_7  and  O_8 
REMARK    3  A    between atoms: O_8  and  C_9 
REMARK       I    between atoms: C_9  and  N_10 
REMARK    4  A    between atoms: C_22  and  O_23 
REMARK    5  A    between atoms: O_23  and  S_24 
REMARK    6  A    between atoms: C_28  and  O_29 
REMARK    7  A    between atoms: C_28  and  O_30 
ROOT
ATOM      1  N           0     135.376 133.151 148.295  0.00  0.00    -0.235 N 
ATOM      2  H           0     135.130 132.812 149.169  0.00  0.00     0.174 HD
ATOM      3  H           0     135.025 134.001 147.987  0.00  0.00     0.174 HD
ATOM      4  C           0     136.184 132.467 147.534  0.00  0.00     0.672 C 
ATOM      5  N           0     136.716 131.252 147.929  0.00  0.00    -0.218 N 
ATOM      6  C           0     137.061 130.279 146.896  0.00  0.00     0.151 C 
ATOM      7  C           0     137.929 130.869 145.804  0.00  0.00     0.180 C 
ATOM      8  N           0     139.318 130.992 146.298  0.00  0.00    -0.216 N 
ATOM      9  C           0     139.821 132.180 145.828  0.00  0.00     0.670 C 
ATOM     10  N           0     141.093 132.457 145.752  0.00  0.00    -0.235 N 
ATOM     11  H           0     141.749 131.803 146.038  0.00  0.00     0.174 HD
ATOM     12  H           0     141.382 133.317 145.409  0.00  0.00     0.174 HD
ATOM     13  C           0     137.555 132.289 145.411  0.00  0.00     0.220 C 
ATOM     14  N           0     138.821 133.040 145.449  0.00  0.00    -0.191 N 
ATOM     15  N           0     136.556 132.902 146.289  0.00  0.00    -0.180 N 
ATOM     16  C           0     136.007 134.035 145.523  0.00  0.00     0.183 C 
ATOM     17  C           0     135.921 133.511 144.070  0.00  0.00     0.230 C 
ATOM     18  C           0     136.951 132.355 143.998  0.00  0.00     0.238 C 
ATOM     19  H           0     136.857 131.052 148.868  0.00  0.00     0.178 HD
ATOM     20  H           0     139.787 130.351 146.854  0.00  0.00     0.178 HD
ATOM     21  H           0     138.930 133.981 145.240  0.00  0.00     0.180 HD
ENDROOT
BRANCH   6  22
ATOM     22  C           0     135.770 129.749 146.267  0.00  0.00     0.208 C 
BRANCH  22  23
ATOM     23  O           0     135.271 128.635 147.053  0.00  0.00    -0.302 OA
BRANCH  23  24
ATOM     24  C           0     134.158 128.782 147.797  0.00  0.00     0.358 C 
ATOM     25  N           0     133.029 128.129 147.456  0.00  0.00    -0.346 N 
ATOM     26  H           0     133.019 127.554 146.675  0.00  0.00     0.161 HD
ATOM     27  H           0     132.227 128.235 147.991  0.00  0.00     0.161 HD
ATOM     28  O           0     134.172 129.502 148.775  0.00  0.00    -0.239 OA
ENDBRANCH  23  24
ENDBRANCH  22  23
ENDBRANCH   6  22
BRANCH  18  29
ATOM     29  O           0     137.962 132.649 143.031  0.00  0.00    -0.360 OA
ATOM     30  H           0     138.230 131.806 142.641  0.00  0.00     0.213 HD
ENDBRANCH  18  29
BRANCH  18  31
ATOM     31  O           0     136.298 131.125 143.679  0.00  0.00    -0.360 OA
ATOM     32  H           0     136.265 131.067 142.714  0.00  0.00     0.213 HD
ENDBRANCH  18  31
BRANCH  17  33
ATOM     33  O           0     134.606 133.027 143.793  0.00  0.00    -0.244 OA
BRANCH  33  34
ATOM     34  S           0     134.208 133.589 142.435  0.00  0.00     0.252 S 
ATOM     35  O           0     134.236 135.037 142.565  0.00  0.00    -0.572 OA
ATOM     36  O           0     135.195 133.099 141.484  0.00  0.00    -0.572 OA
ATOM     37  O           0     132.873 133.083 142.157  0.00  0.00    -0.572 OA
ENDBRANCH  33  34
ENDBRANCH  17  33
TORSDOF 7
ENDMDL
MODEL 5
REMARK VINA RESULT:      -7.3      2.712      5.549
REMARK  7 active torsions:
REMARK  status: ('A' for Active; 'I' for Inactive)
REMARK    1  A    between atoms: C_6  and  C_7 
REMARK    2  A    between atoms: C_7  and  O_8 
REMARK    3  A    between atoms: O_8  and  C_9 
REMARK       I    between atoms: C_9  and  N_10 
REMARK    4  A    between atoms: C_22  and  O_23 
REMARK    5  A    between atoms: O_23  and  S_24 
REMARK    6  A    between atoms: C_28  and  O_29 
REMARK    7  A    between atoms: C_28  and  O_30 
ROOT
ATOM      1  N           0     135.940 134.794 147.609  0.00  0.00    -0.235 N 
ATOM      2  H           0     136.312 135.687 147.549  0.00  0.00     0.174 HD
ATOM      3  H           0     135.386 134.548 148.366  0.00  0.00     0.174 HD
ATOM      4  C           0     136.181 133.923 146.668  0.00  0.00     0.672 C 
ATOM      5  N           0     136.962 134.227 145.567  0.00  0.00    -0.218 N 
ATOM      6  C           0     137.694 133.143 144.918  0.00  0.00     0.151 C 
ATOM      7  C           0     136.811 131.956 144.589  0.00  0.00     0.180 C 
ATOM      8  N           0     136.003 132.267 143.390  0.00  0.00    -0.216 N 
ATOM      9  C           0     134.745 131.755 143.594  0.00  0.00     0.670 C 
ATOM     10  N           0     133.888 131.518 142.640  0.00  0.00    -0.235 N 
ATOM     11  H           0     134.124 131.706 141.719  0.00  0.00     0.174 HD
ATOM     12  H           0     133.014 131.154 142.853  0.00  0.00     0.174 HD
ATOM     13  C           0     135.775 131.638 145.655  0.00  0.00     0.220 C 
ATOM     14  N           0     134.501 131.523 144.925  0.00  0.00    -0.191 N 
ATOM     15  N           0     135.683 132.648 146.711  0.00  0.00    -0.180 N 
ATOM     16  C           0     135.001 131.978 147.833  0.00  0.00     0.183 C 
ATOM     17  C           0     135.572 130.541 147.826  0.00  0.00     0.230 C 
ATOM     18  C           0     136.083 130.317 146.380  0.00  0.00     0.238 C 
ATOM     19  H           0     137.020 135.136 145.233  0.00  0.00     0.178 HD
ATOM     20  H           0     136.305 132.748 142.604  0.00  0.00     0.178 HD
ATOM     21  H           0     133.639 131.316 145.317  0.00  0.00     0.180 HD
ENDROOT
BRANCH   6  22
ATOM     22  C           0     138.816 132.679 145.849  0.00  0.00     0.208 C 
BRANCH  22  23
ATOM     23  O           0     139.690 133.799 146.148  0.00  0.00    -0.302 OA
BRANCH  23  24
ATOM     24  C           0     139.904 134.162 147.428  0.00  0.00     0.358 C 
ATOM     25  N           0     141.097 133.919 148.006  0.00  0.00    -0.346 N 
ATOM     26  H           0     141.800 133.483 147.501  0.00  0.00     0.161 HD
ATOM     27  H           0     141.251 134.180 148.927  0.00  0.00     0.161 HD
ATOM     28  O           0     139.023 134.709 148.059  0.00  0.00    -0.239 OA
ENDBRANCH  23  24
ENDBRANCH  22  23
ENDBRANCH   6  22
BRANCH  18  29
ATOM     29  O           0     135.382 129.231 145.768  0.00  0.00    -0.360 OA
ATOM     30  H           0     134.798 129.616 145.100  0.00  0.00     0.213 HD
ENDBRANCH  18  29
BRANCH  18  31
ATOM     31  O           0     137.489 130.066 146.381  0.00  0.00    -0.360 OA
ATOM     32  H           0     137.913 130.848 146.761  0.00  0.00     0.213 HD
ENDBRANCH  18  31
BRANCH  17  33
ATOM     33  O           0     136.649 130.430 148.759  0.00  0.00    -0.244 OA
BRANCH  33  34
ATOM     34  S           0     136.462 129.107 149.490  0.00  0.00     0.252 S 
ATOM     35  O           0     136.844 129.345 150.874  0.00  0.00    -0.572 OA
ATOM     36  O           0     135.055 128.759 149.357  0.00  0.00    -0.572 OA
ATOM     37  O           0     137.335 128.148 148.832  0.00  0.00    -0.572 OA
ENDBRANCH  33  34
ENDBRANCH  17  33
TORSDOF 7
ENDMDL
MODEL 6
REMARK VINA RESULT:      -7.2      3.889      5.364
REMARK  7 active torsions:
REMARK  status: ('A' for Active; 'I' for Inactive)
REMARK    1  A    between atoms: C_6  and  C_7 
REMARK    2  A    between atoms: C_7  and  O_8 
REMARK    3  A    between atoms: O_8  and  C_9 
REMARK       I    between atoms: C_9  and  N_10 
REMARK    4  A    between atoms: C_22  and  O_23 
REMARK    5  A    between atoms: O_23  and  S_24 
REMARK    6  A    between atoms: C_28  and  O_29 
REMARK    7  A    between atoms: C_28  and  O_30 
ROOT
ATOM      1  N           0     134.205 132.076 149.274  0.00  0.00    -0.235 N 
ATOM      2  H           0     133.708 131.786 150.054  0.00  0.00     0.174 HD
ATOM      3  H           0     134.143 132.995 148.973  0.00  0.00     0.174 HD
ATOM      4  C           0     134.962 131.230 148.632  0.00  0.00     0.672 C 
ATOM      5  N           0     135.087 129.909 149.025  0.00  0.00    -0.218 N 
ATOM      6  C           0     135.391 128.910 148.004  0.00  0.00     0.151 C 
ATOM      7  C           0     136.585 129.290 147.151  0.00  0.00     0.180 C 
ATOM      8  N           0     137.828 129.041 147.913  0.00  0.00    -0.216 N 
ATOM      9  C           0     138.691 130.074 147.646  0.00  0.00     0.670 C 
ATOM     10  N           0     139.980 130.020 147.840  0.00  0.00    -0.235 N 
ATOM     11  H           0     140.383 129.212 148.195  0.00  0.00     0.174 HD
ATOM     12  H           0     140.535 130.787 147.630  0.00  0.00     0.174 HD
ATOM     13  C           0     136.658 130.769 146.807  0.00  0.00     0.220 C 
ATOM     14  N           0     138.032 131.171 147.150  0.00  0.00    -0.191 N 
ATOM     15  N           0     135.679 131.590 147.521  0.00  0.00    -0.180 N 
ATOM     16  C           0     135.593 132.847 146.756  0.00  0.00     0.183 C 
ATOM     17  C           0     135.686 132.404 145.277  0.00  0.00     0.230 C 
ATOM     18  C           0     136.395 131.026 145.314  0.00  0.00     0.238 C 
ATOM     19  H           0     134.978 129.654 149.954  0.00  0.00     0.178 HD
ATOM     20  H           0     138.000 128.286 148.497  0.00  0.00     0.178 HD
ATOM     21  H           0     138.408 132.058 147.041  0.00  0.00     0.180 HD
ENDROOT
BRANCH   6  22
ATOM     22  C           0     134.170 128.744 147.097  0.00  0.00     0.208 C 
BRANCH  22  23
ATOM     23  O           0     133.333 127.671 147.604  0.00  0.00    -0.302 OA
BRANCH  23  24
ATOM     24  C           0     132.038 127.906 147.888  0.00  0.00     0.358 C 
ATOM     25  N           0     131.699 128.958 148.660  0.00  0.00    -0.346 N 
ATOM     26  H           0     132.386 129.544 149.010  0.00  0.00     0.161 HD
ATOM     27  H           0     130.766 129.127 148.865  0.00  0.00     0.161 HD
ATOM     28  O           0     131.177 127.171 147.449  0.00  0.00    -0.239 OA
ENDBRANCH  23  24
ENDBRANCH  22  23
ENDBRANCH   6  22
BRANCH  18  29
ATOM     29  O           0     137.625 131.080 144.588  0.00  0.00    -0.360 OA
ATOM     30  H           0     137.514 131.749 143.899  0.00  0.00     0.213 HD
ENDBRANCH  18  29
BRANCH  18  31
ATOM     31  O           0     135.542 130.013 144.778  0.00  0.00    -0.360 OA
ATOM     32  H           0     135.724 129.202 145.274  0.00  0.00     0.213 HD
ENDBRANCH  18  31
BRANCH  17  33
ATOM     33  O           0     134.380 132.279 144.713  0.00  0.00    -0.244 OA
BRANCH  33  34
ATOM     34  S           0     134.523 132.512 143.215  0.00  0.00     0.252 S 
ATOM     35  O           0     135.920 132.845 142.984  0.00  0.00    -0.572 OA
ATOM     36  O           0     134.136 131.268 142.567  0.00  0.00    -0.572 OA
ATOM     37  O           0     133.630 133.611 142.883  0.00  0.00    -0.572 OA
ENDBRANCH  33  34
ENDBRANCH  17  33
TORSDOF 7
ENDMDL
MODEL 7
REMARK VINA RESULT:      -7.2      2.707      5.437
REMARK  7 active torsions:
REMARK  status: ('A' for Active; 'I' for Inactive)
REMARK    1  A    between atoms: C_6  and  C_7 
REMARK    2  A    between atoms: C_7  and  O_8 
REMARK    3  A    between atoms: O_8  and  C_9 
REMARK       I    between atoms: C_9  and  N_10 
REMARK    4  A    between atoms: C_22  and  O_23 
REMARK    5  A    between atoms: O_23  and  S_24 
REMARK    6  A    between atoms: C_28  and  O_29 
REMARK    7  A    between atoms: C_28  and  O_30 
ROOT
ATOM      1  N           0     135.473 130.606 143.466  0.00  0.00    -0.235 N 
ATOM      2  H           0     135.228 130.675 142.530  0.00  0.00     0.174 HD
ATOM      3  H           0     135.199 129.832 143.984  0.00  0.00     0.174 HD
ATOM      4  C           0     136.175 131.550 144.027  0.00  0.00     0.672 C 
ATOM      5  N           0     136.594 132.670 143.330  0.00  0.00    -0.218 N 
ATOM      6  C           0     136.795 133.911 144.072  0.00  0.00     0.151 C 
ATOM      7  C           0     137.677 133.727 145.291  0.00  0.00     0.180 C 
ATOM      8  N           0     139.088 133.632 144.862  0.00  0.00    -0.216 N 
ATOM      9  C           0     139.693 132.672 145.635  0.00  0.00     0.670 C 
ATOM     10  N           0     140.983 132.566 145.795  0.00  0.00    -0.235 N 
ATOM     11  H           0     141.579 133.191 145.353  0.00  0.00     0.174 HD
ATOM     12  H           0     141.346 131.863 146.356  0.00  0.00     0.174 HD
ATOM     13  C           0     137.435 132.427 146.042  0.00  0.00     0.220 C 
ATOM     14  N           0     138.773 131.836 146.217  0.00  0.00    -0.191 N 
ATOM     15  N           0     136.541 131.500 145.347  0.00  0.00    -0.180 N 
ATOM     16  C           0     136.082 130.553 146.379  0.00  0.00     0.183 C 
ATOM     17  C           0     135.885 131.427 147.641  0.00  0.00     0.230 C 
ATOM     18  C           0     136.786 132.668 147.415  0.00  0.00     0.238 C 
ATOM     19  H           0     136.750 132.631 142.374  0.00  0.00     0.178 HD
ATOM     20  H           0     139.510 134.153 144.161  0.00  0.00     0.178 HD
ATOM     21  H           0     138.970 131.001 146.669  0.00  0.00     0.180 HD
ENDROOT
BRANCH   6  22
ATOM     22  C           0     135.433 134.442 144.525  0.00  0.00     0.208 C 
BRANCH  22  23
ATOM     23  O           0     135.027 135.533 143.657  0.00  0.00    -0.302 OA
BRANCH  23  24
ATOM     24  C           0     134.252 135.284 142.583  0.00  0.00     0.358 C 
ATOM     25  N           0     133.956 136.279 141.722  0.00  0.00    -0.346 N 
ATOM     26  H           0     134.301 137.171 141.876  0.00  0.00     0.161 HD
ATOM     27  H           0     133.399 136.100 140.949  0.00  0.00     0.161 HD
ATOM     28  O           0     133.821 134.165 142.391  0.00  0.00    -0.239 OA
ENDBRANCH  23  24
ENDBRANCH  22  23
ENDBRANCH   6  22
BRANCH  18  29
ATOM     29  O           0     137.783 132.750 148.436  0.00  0.00    -0.360 OA
ATOM     30  H           0     138.565 133.153 148.033  0.00  0.00     0.213 HD
ENDBRANCH  18  29
BRANCH  18  31
ATOM     31  O           0     135.997 133.858 147.390  0.00  0.00    -0.360 OA
ATOM     32  H           0     135.128 133.626 147.744  0.00  0.00     0.213 HD
ENDBRANCH  18  31
BRANCH  17  33
ATOM     33  O           0     134.517 131.818 147.766  0.00  0.00    -0.244 OA
BRANCH  33  34
ATOM     34  S           0     134.132 131.611 149.224  0.00  0.00     0.252 S 
ATOM     35  O           0     132.706 131.887 149.315  0.00  0.00    -0.572 OA
ATOM     36  O           0     134.449 130.226 149.539  0.00  0.00    -0.572 OA
ATOM     37  O           0     134.928 132.552 149.996  0.00  0.00    -0.572 OA
ENDBRANCH  33  34
ENDBRANCH  17  33
TORSDOF 7
ENDMDL
MODEL 8
REMARK VINA RESULT:      -7.1      3.246      4.910
REMARK  7 active torsions:
REMARK  status: ('A' for Active; 'I' for Inactive)
REMARK    1  A    between atoms: C_6  and  C_7 
REMARK    2  A    between atoms: C_7  and  O_8 
REMARK    3  A    between atoms: O_8  and  C_9 
REMARK       I    between atoms: C_9  and  N_10 
REMARK    4  A    between atoms: C_22  and  O_23 
REMARK    5  A    between atoms: O_23  and  S_24 
REMARK    6  A    between atoms: C_28  and  O_29 
REMARK    7  A    between atoms: C_28  and  O_30 
ROOT
ATOM      1  N           0     135.408 132.838 148.258  0.00  0.00    -0.235 N 
ATOM      2  H           0     135.404 132.414 149.130  0.00  0.00     0.174 HD
ATOM      3  H           0     134.579 133.159 147.870  0.00  0.00     0.174 HD
ATOM      4  C           0     136.529 132.981 147.608  0.00  0.00     0.672 C 
ATOM      5  N           0     137.738 132.544 148.121  0.00  0.00    -0.218 N 
ATOM      6  C           0     138.787 132.154 147.183  0.00  0.00     0.151 C 
ATOM      7  C           0     139.048 133.209 146.127  0.00  0.00     0.180 C 
ATOM      8  N           0     139.842 134.307 146.720  0.00  0.00    -0.216 N 
ATOM      9  C           0     139.356 135.488 146.216  0.00  0.00     0.670 C 
ATOM     10  N           0     140.016 136.613 146.223  0.00  0.00    -0.235 N 
ATOM     11  H           0     140.909 136.649 146.601  0.00  0.00     0.174 HD
ATOM     12  H           0     139.614 137.413 145.850  0.00  0.00     0.174 HD
ATOM     13  C           0     137.794 133.901 145.616  0.00  0.00     0.220 C 
ATOM     14  N           0     138.091 135.340 145.706  0.00  0.00    -0.191 N 
ATOM     15  N           0     136.586 133.567 146.371  0.00  0.00    -0.180 N 
ATOM     16  C           0     135.462 133.941 145.494  0.00  0.00     0.183 C 
ATOM     17  C           0     135.934 133.545 144.075  0.00  0.00     0.230 C 
ATOM     18  C           0     137.482 133.521 144.158  0.00  0.00     0.238 C 
ATOM     19  H           0     137.885 132.499 149.079  0.00  0.00     0.178 HD
ATOM     20  H           0     140.572 134.209 147.351  0.00  0.00     0.178 HD
ATOM     21  H           0     137.495 136.059 145.445  0.00  0.00     0.180 HD
ENDROOT
BRANCH   6  22
ATOM     22  C           0     138.371 130.855 146.490  0.00  0.00     0.208 C 
BRANCH  22  23
ATOM     23  O           0     137.625 130.028 147.421  0.00  0.00    -0.302 OA
BRANCH  23  24
ATOM     24  C           0     136.446 129.493 147.049  0.00  0.00     0.358 C 
ATOM     25  N           0     135.841 129.917 145.921  0.00  0.00    -0.346 N 
ATOM     26  H           0     136.254 130.605 145.378  0.00  0.00     0.161 HD
ATOM     27  H           0     134.992 129.532 145.653  0.00  0.00     0.161 HD
ATOM     28  O           0     135.928 128.631 147.729  0.00  0.00    -0.239 OA
ENDBRANCH  23  24
ENDBRANCH  22  23
ENDBRANCH   6  22
BRANCH  18  29
ATOM     29  O           0     138.043 134.478 143.257  0.00  0.00    -0.360 OA
ATOM     30  H           0     138.889 134.118 142.957  0.00  0.00     0.213 HD
ENDBRANCH  18  29
BRANCH  18  31
ATOM     31  O           0     137.976 132.213 143.868  0.00  0.00    -0.360 OA
ATOM     32  H           0     137.208 131.628 143.814  0.00  0.00     0.213 HD
ENDBRANCH  18  31
BRANCH  17  33
ATOM     33  O           0     135.432 132.253 143.727  0.00  0.00    -0.244 OA
BRANCH  33  34
ATOM     34  S           0     134.589 132.433 142.472  0.00  0.00     0.252 S 
ATOM     35  O           0     135.517 132.747 141.396  0.00  0.00    -0.572 OA
ATOM     36  O           0     133.900 131.169 142.256  0.00  0.00    -0.572 OA
ATOM     37  O           0     133.670 133.525 142.747  0.00  0.00    -0.572 OA
ENDBRANCH  33  34
ENDBRANCH  17  33
TORSDOF 7
ENDMDL
MODEL 9
REMARK VINA RESULT:      -7.1      2.740      5.594
REMARK  7 active torsions:
REMARK  status: ('A' for Active; 'I' for Inactive)
REMARK    1  A    between atoms: C_6  and  C_7 
REMARK    2  A    between atoms: C_7  and  O_8 
REMARK    3  A    between atoms: O_8  and  C_9 
REMARK       I    between atoms: C_9  and  N_10 
REMARK    4  A    between atoms: C_22  and  O_23 
REMARK    5  A    between atoms: O_23  and  S_24 
REMARK    6  A    between atoms: C_28  and  O_29 
REMARK    7  A    between atoms: C_28  and  O_30 
ROOT
ATOM      1  N           0     140.155 133.088 144.296  0.00  0.00    -0.235 N 
ATOM      2  H           0     141.031 133.463 144.478  0.00  0.00     0.174 HD
ATOM      3  H           0     139.873 132.936 143.381  0.00  0.00     0.174 HD
ATOM      4  C           0     139.359 132.783 145.283  0.00  0.00     0.672 C 
ATOM      5  N           0     139.718 132.976 146.605  0.00  0.00    -0.218 N 
ATOM      6  C           0     138.659 133.221 147.580  0.00  0.00     0.151 C 
ATOM      7  C           0     137.551 132.189 147.512  0.00  0.00     0.180 C 
ATOM      8  N           0     138.005 130.942 148.164  0.00  0.00    -0.216 N 
ATOM      9  C           0     137.541 129.890 147.414  0.00  0.00     0.670 C 
ATOM     10  N           0     137.432 128.668 147.856  0.00  0.00    -0.235 N 
ATOM     11  H           0     137.686 128.458 148.768  0.00  0.00     0.174 HD
ATOM     12  H           0     137.095 127.969 147.273  0.00  0.00     0.174 HD
ATOM     13  C           0     137.193 131.753 146.099  0.00  0.00     0.220 C 
ATOM     14  N           0     137.207 130.282 146.142  0.00  0.00    -0.191 N 
ATOM     15  N           0     138.111 132.256 145.076  0.00  0.00    -0.180 N 
ATOM     16  C           0     137.382 132.128 143.802  0.00  0.00     0.183 C 
ATOM     17  C           0     135.923 132.504 144.155  0.00  0.00     0.230 C 
ATOM     18  C           0     135.800 132.252 145.679  0.00  0.00     0.238 C 
ATOM     19  H           0     140.648 132.948 146.878  0.00  0.00     0.178 HD
ATOM     20  H           0     138.536 130.879 148.973  0.00  0.00     0.178 HD
ATOM     21  H           0     137.010 129.691 145.398  0.00  0.00     0.180 HD
ENDROOT
BRANCH   6  22
ATOM     22  C           0     138.060 134.605 147.321  0.00  0.00     0.208 C 
BRANCH  22  23
ATOM     23  O           0     139.056 135.623 147.600  0.00  0.00    -0.302 OA
BRANCH  23  24
ATOM     24  C           0     139.612 136.316 146.587  0.00  0.00     0.358 C 
ATOM     25  N           0     140.548 137.251 146.845  0.00  0.00    -0.346 N 
ATOM     26  H           0     140.821 137.425 147.759  0.00  0.00     0.161 HD
ATOM     27  H           0     140.948 137.751 146.116  0.00  0.00     0.161 HD
ATOM     28  O           0     139.270 136.098 145.443  0.00  0.00    -0.239 OA
ENDBRANCH  23  24
ENDBRANCH  22  23
ENDBRANCH   6  22
BRANCH  18  29
ATOM     29  O           0     134.809 131.256 145.941  0.00  0.00    -0.360 OA
ATOM     30  H           0     134.899 130.584 145.251  0.00  0.00     0.213 HD
ENDBRANCH  18  29
BRANCH  18  31
ATOM     31  O           0     135.481 133.466 146.360  0.00  0.00    -0.360 OA
ATOM     32  H           0     135.459 134.165 145.692  0.00  0.00     0.213 HD
ENDBRANCH  18  31
BRANCH  17  33
ATOM     33  O           0     135.678 133.878 143.853  0.00  0.00    -0.244 OA
BRANCH  33  34
ATOM     34  S           0     134.636 133.906 142.743  0.00  0.00     0.252 S 
ATOM     35  O           0     135.297 133.403 141.548  0.00  0.00    -0.572 OA
ATOM     36  O           0     133.549 133.042 143.179  0.00  0.00    -0.572 OA
ATOM     37  O           0     134.221 135.292 142.604  0.00  0.00    -0.572 OA
ENDBRANCH  33  34
ENDBRANCH  17  33
TORSDOF 7
ENDMDL
