# created with PyMOL 2.3.4
@<TRIPOS>MOLECULE
ligand_out_0001
37 39 1                 
SMALL
USER_CHARGES
@<TRIPOS>ATOM
1	   N	138.860	130.383	145.978	N.3	1	UNK0	-0.235	
2	   N	136.572	130.643	145.497	N.3	1	UNK0	-0.218	
3	   N	135.228	132.289	143.265	N.3	1	UNK0	-0.216	
4	   N	135.851	132.951	141.081	N.3	1	UNK0	-0.235	
5	   N	137.259	133.260	142.956	N.3	1	UNK0	-0.191	
6	   N	138.062	132.384	145.063	N.3	1	UNK0	-0.180	
7	   N	133.365	131.681	148.870	N.pl3	1	UNK0	-0.346	
8	   C	137.875	131.109	145.528	C.3	1	UNK0	0.672	
9	   C	135.487	131.616	145.597	C.3	1	UNK0	0.151	
10	   C	135.631	132.756	144.609	C.3	1	UNK0	0.180	
11	   C	136.098	132.840	142.356	C.3	1	UNK0	0.670	
12	   C	137.062	133.234	144.415	C.3	1	UNK0	0.220	
13	   C	139.277	133.213	145.156	C.3	1	UNK0	0.183	
14	   C	138.751	134.628	145.493	C.2	1	UNK0	0.230	
15	   C	137.282	134.640	144.998	C.3	1	UNK0	0.238	
16	   C	135.471	132.193	147.015	C.2	1	UNK0	0.208	
17	   C	134.278	130.743	148.548	C.2	1	UNK0	0.358	
18	   O	135.443	131.107	147.978	O.2	1	UNK0	-0.302	
19	   O	134.051	129.571	148.770	O.co2	1	UNK0	-0.239	
20	   O	137.105	135.637	143.989	O.2	1	UNK0	-0.360	
21	   O	136.390	134.871	146.090	O.2	1	UNK0	-0.360	
22	   O	138.805	134.856	146.902	O.2	1	UNK0	-0.244	
23	   O	139.603	136.819	145.808	O.3	1	UNK0	-0.572	
24	   O	138.788	136.929	148.081	O.3	1	UNK0	-0.572	
25	   O	140.876	135.810	147.599	O.3	1	UNK0	-0.572	
26	   S	139.554	136.166	147.107	S.3	1	UNK0	0.252	
27	   H	138.692	129.485	146.303	 H	1	UNK0	0.174	
28	   H	139.762	130.739	145.982	 H	1	UNK0	0.174	
29	   H	135.009	132.632	140.721	 H	1	UNK0	0.174	
30	   H	136.510	133.352	140.492	 H	1	UNK0	0.174	
31	   H	136.384	129.696	145.410	 H	1	UNK0	0.178	
32	   H	134.486	131.699	143.062	 H	1	UNK0	0.178	
33	   H	138.070	133.531	142.498	 H	1	UNK0	0.180	
34	   H	133.547	132.616	148.692	 H	1	UNK0	0.161	
35	   H	132.526	131.419	149.280	 H	1	UNK0	0.161	
36	   H	137.523	136.445	144.317	 H	1	UNK0	0.213	
37	   H	136.936	134.970	146.882	 H	1	UNK0	0.213	
@<TRIPOS>BOND
1 1 8 1
2 1 27 1
3 1 28 1
4 2 9 1
5 2 31 1
6 3 11 1
7 3 32 1
8 4 29 1
9 4 30 1
10 5 33 1
11 6 13 1
12 7 34 1
13 7 35 1
14 2 8 1
15 6 8 1
16 9 10 1
17 9 16 1
18 3 10 1
19 10 12 1
20 4 11 1
21 5 11 1
22 5 12 1
23 6 12 1
24 12 15 1
25 13 14 1
26 14 15 1
27 14 22 2
28 15 20 2
29 15 21 2
30 16 18 2
31 7 17 1
32 17 19 2
33 17 18 2
34 20 36 1
35 21 37 1
36 22 26 1
37 23 26 1
38 24 26 1
39 25 26 1
@<TRIPOS>SUBSTRUCTURE
1	UNK0	1	GROUP	1 ****	UNK
