MODEL 1
REMARK VINA RESULT:      -8.7      0.000      0.000
REMARK  5 active torsions:
REMARK  status: ('A' for Active; 'I' for Inactive)
REMARK    1  A    between atoms: C_6  and  C_7 
REMARK    2  A    between atoms: C_7  and  O_8 
REMARK    3  A    between atoms: O_8  and  C_9 
REMARK       I    between atoms: C_9  and  N_10 
REMARK    4  A    between atoms: C_24  and  O_25 
REMARK    5  A    between atoms: C_24  and  O_26 
ROOT
ATOM      1  N           0     135.475 136.807 143.284  0.00  0.00    -0.235 N 
ATOM      2  H           0     134.760 137.442 143.122  0.00  0.00     0.174 HD
ATOM      3  H           0     136.394 137.115 143.335  0.00  0.00     0.174 HD
ATOM      4  C           0     135.203 135.542 143.439  0.00  0.00     0.672 C 
ATOM      5  N           0     133.908 135.057 143.382  0.00  0.00    -0.218 N 
ATOM      6  C           0     133.702 133.683 142.932  0.00  0.00     0.151 C 
ATOM      7  C           0     134.570 132.689 143.678  0.00  0.00     0.180 C 
ATOM      8  N           0     133.983 132.438 145.012  0.00  0.00    -0.216 N 
ATOM      9  C           0     135.018 132.359 145.913  0.00  0.00     0.670 C 
ATOM     10  N           0     134.924 131.803 147.088  0.00  0.00    -0.235 N 
ATOM     11  H           0     134.084 131.412 147.375  0.00  0.00     0.174 HD
ATOM     12  H           0     135.694 131.781 147.677  0.00  0.00     0.174 HD
ATOM     13  C           0     135.970 133.194 143.986  0.00  0.00     0.217 C 
ATOM     14  N           0     136.162 132.938 145.421  0.00  0.00    -0.191 N 
ATOM     15  N           0     136.182 134.606 143.666  0.00  0.00    -0.179 N 
ATOM     16  C           0     137.636 134.802 143.576  0.00  0.00     0.106 C 
ATOM     17  C           0     138.182 135.295 144.917  0.00  0.00     0.033 C 
ATOM     18  C           0     138.249 133.428 143.230  0.00  0.00     0.098 C 
ATOM     19  C           0     137.044 132.449 143.168  0.00  0.00     0.210 C 
ATOM     20  H           0     133.157 135.615 143.636  0.00  0.00     0.178 HD
ATOM     21  H           0     133.039 132.346 145.215  0.00  0.00     0.178 HD
ATOM     22  H           0     136.960 133.139 145.934  0.00  0.00     0.180 HD
ENDROOT
BRANCH   6  23
ATOM     23  C           0     134.028 133.598 141.439  0.00  0.00     0.208 C 
BRANCH  23  24
ATOM     24  O           0     132.912 134.118 140.669  0.00  0.00    -0.302 OA
BRANCH  24  25
ATOM     25  C           0     133.139 134.903 139.599  0.00  0.00     0.358 C 
ATOM     26  N           0     133.563 136.171 139.771  0.00  0.00    -0.346 N 
ATOM     27  H           0     133.702 136.518 140.667  0.00  0.00     0.161 HD
ATOM     28  H           0     133.726 136.736 139.000  0.00  0.00     0.161 HD
ATOM     29  O           0     132.963 134.468 138.479  0.00  0.00    -0.239 OA
ENDBRANCH  24  25
ENDBRANCH  23  24
ENDBRANCH   6  23
BRANCH  19  30
ATOM     30  O           0     137.376 131.197 143.773  0.00  0.00    -0.362 OA
ATOM     31  H           0     136.568 130.862 144.182  0.00  0.00     0.213 HD
ENDBRANCH  19  30
BRANCH  19  32
ATOM     32  O           0     136.610 132.262 141.820  0.00  0.00    -0.362 OA
ATOM     33  H           0     135.649 132.368 141.818  0.00  0.00     0.213 HD
ENDBRANCH  19  32
TORSDOF 5
ENDMDL
MODEL 2
REMARK VINA RESULT:      -7.9      1.579      1.812
REMARK  5 active torsions:
REMARK  status: ('A' for Active; 'I' for Inactive)
REMARK    1  A    between atoms: C_6  and  C_7 
REMARK    2  A    between atoms: C_7  and  O_8 
REMARK    3  A    between atoms: O_8  and  C_9 
REMARK       I    between atoms: C_9  and  N_10 
REMARK    4  A    between atoms: C_24  and  O_25 
REMARK    5  A    between atoms: C_24  and  O_26 
ROOT
ATOM      1  N           0     137.470 135.414 143.288  0.00  0.00    -0.235 N 
ATOM      2  H           0     137.507 136.293 142.879  0.00  0.00     0.174 HD
ATOM      3  H           0     138.290 134.958 143.533  0.00  0.00     0.174 HD
ATOM      4  C           0     136.318 134.848 143.514  0.00  0.00     0.672 C 
ATOM      5  N           0     135.121 135.461 143.188  0.00  0.00    -0.218 N 
ATOM      6  C           0     133.975 134.616 142.861  0.00  0.00     0.151 C 
ATOM      7  C           0     133.717 133.554 143.912  0.00  0.00     0.180 C 
ATOM      8  N           0     133.046 134.174 145.075  0.00  0.00    -0.216 N 
ATOM      9  C           0     133.580 133.615 146.210  0.00  0.00     0.670 C 
ATOM     10  N           0     133.005 133.641 147.379  0.00  0.00    -0.235 N 
ATOM     11  H           0     132.145 134.077 147.488  0.00  0.00     0.174 HD
ATOM     12  H           0     133.438 133.226 148.142  0.00  0.00     0.174 HD
ATOM     13  C           0     134.977 132.943 144.502  0.00  0.00     0.217 C 
ATOM     14  N           0     134.794 133.023 145.959  0.00  0.00    -0.191 N 
ATOM     15  N           0     136.215 133.604 144.086  0.00  0.00    -0.179 N 
ATOM     16  C           0     137.305 132.651 144.343  0.00  0.00     0.106 C 
ATOM     17  C           0     137.928 132.927 145.713  0.00  0.00     0.033 C 
ATOM     18  C           0     136.677 131.241 144.323  0.00  0.00     0.098 C 
ATOM     19  C           0     135.162 131.474 144.073  0.00  0.00     0.210 C 
ATOM     20  H           0     135.045 136.428 143.178  0.00  0.00     0.178 HD
ATOM     21  H           0     132.353 134.853 145.042  0.00  0.00     0.178 HD
ATOM     22  H           0     135.421 132.710 146.630  0.00  0.00     0.180 HD
ENDROOT
BRANCH   6  23
ATOM     23  C           0     134.235 133.929 141.519  0.00  0.00     0.208 C 
BRANCH  23  24
ATOM     24  O           0     133.087 134.114 140.650  0.00  0.00    -0.302 OA
BRANCH  24  25
ATOM     25  C           0     133.193 134.879 139.547  0.00  0.00     0.358 C 
ATOM     26  N           0     133.529 136.179 139.659  0.00  0.00    -0.346 N 
ATOM     27  H           0     133.693 136.564 140.534  0.00  0.00     0.161 HD
ATOM     28  H           0     133.605 136.730 138.863  0.00  0.00     0.161 HD
ATOM     29  O           0     132.987 134.396 138.451  0.00  0.00    -0.239 OA
ENDBRANCH  24  25
ENDBRANCH  23  24
ENDBRANCH   6  23
BRANCH  19  30
ATOM     30  O           0     134.374 130.598 144.882  0.00  0.00    -0.362 OA
ATOM     31  H           0     134.972 130.202 145.529  0.00  0.00     0.213 HD
ENDBRANCH  19  30
BRANCH  19  32
ATOM     32  O           0     134.845 131.311 142.689  0.00  0.00    -0.362 OA
ATOM     33  H           0     135.238 132.061 142.222  0.00  0.00     0.213 HD
ENDBRANCH  19  32
TORSDOF 5
ENDMDL
MODEL 3
REMARK VINA RESULT:      -7.7      2.161      2.683
REMARK  5 active torsions:
REMARK  status: ('A' for Active; 'I' for Inactive)
REMARK    1  A    between atoms: C_6  and  C_7 
REMARK    2  A    between atoms: C_7  and  O_8 
REMARK    3  A    between atoms: O_8  and  C_9 
REMARK       I    between atoms: C_9  and  N_10 
REMARK    4  A    between atoms: C_24  and  O_25 
REMARK    5  A    between atoms: C_24  and  O_26 
ROOT
ATOM      1  N           0     138.095 135.308 143.368  0.00  0.00    -0.235 N 
ATOM      2  H           0     138.230 136.026 142.730  0.00  0.00     0.174 HD
ATOM      3  H           0     138.856 134.802 143.696  0.00  0.00     0.174 HD
ATOM      4  C           0     136.895 135.026 143.790  0.00  0.00     0.672 C 
ATOM      5  N           0     135.781 135.724 143.357  0.00  0.00    -0.218 N 
ATOM      6  C           0     134.497 135.029 143.327  0.00  0.00     0.151 C 
ATOM      7  C           0     134.173 134.347 144.641  0.00  0.00     0.180 C 
ATOM      8  N           0     133.706 135.360 145.612  0.00  0.00    -0.216 N 
ATOM      9  C           0     134.246 135.043 146.835  0.00  0.00     0.670 C 
ATOM     10  N           0     133.786 135.480 147.974  0.00  0.00    -0.235 N 
ATOM     11  H           0     133.014 136.067 147.992  0.00  0.00     0.174 HD
ATOM     12  H           0     134.215 135.217 148.803  0.00  0.00     0.174 HD
ATOM     13  C           0     135.372 133.712 145.325  0.00  0.00     0.217 C 
ATOM     14  N           0     135.330 134.210 146.709  0.00  0.00    -0.191 N 
ATOM     15  N           0     136.655 134.017 144.690  0.00  0.00    -0.179 N 
ATOM     16  C           0     137.606 132.998 145.157  0.00  0.00     0.106 C 
ATOM     17  C           0     138.380 133.521 146.369  0.00  0.00     0.033 C 
ATOM     18  C           0     136.773 131.762 145.557  0.00  0.00     0.098 C 
ATOM     19  C           0     135.294 132.173 145.315  0.00  0.00     0.210 C 
ATOM     20  H           0     135.852 136.651 143.082  0.00  0.00     0.178 HD
ATOM     21  H           0     133.124 136.113 145.420  0.00  0.00     0.178 HD
ATOM     22  H           0     135.958 133.986 147.413  0.00  0.00     0.180 HD
ENDROOT
BRANCH   6  23
ATOM     23  C           0     134.532 133.974 142.219  0.00  0.00     0.208 C 
BRANCH  23  24
ATOM     24  O           0     133.334 134.083 141.407  0.00  0.00    -0.302 OA
BRANCH  24  25
ATOM     25  C           0     132.488 133.041 141.310  0.00  0.00     0.358 C 
ATOM     26  N           0     132.824 131.849 141.842  0.00  0.00    -0.346 N 
ATOM     27  H           0     133.676 131.741 142.292  0.00  0.00     0.161 HD
ATOM     28  H           0     132.213 131.097 141.771  0.00  0.00     0.161 HD
ATOM     29  O           0     131.421 133.175 140.745  0.00  0.00    -0.239 OA
ENDBRANCH  24  25
ENDBRANCH  23  24
ENDBRANCH   6  23
BRANCH  19  30
ATOM     30  O           0     134.455 131.692 146.368  0.00  0.00    -0.362 OA
ATOM     31  H           0     133.557 131.983 146.164  0.00  0.00     0.213 HD
ENDBRANCH  19  30
BRANCH  19  32
ATOM     32  O           0     134.837 131.701 144.046  0.00  0.00    -0.362 OA
ATOM     33  H           0     134.159 132.320 143.745  0.00  0.00     0.213 HD
ENDBRANCH  19  32
TORSDOF 5
ENDMDL
MODEL 4
REMARK VINA RESULT:      -7.5      2.368      4.000
REMARK  5 active torsions:
REMARK  status: ('A' for Active; 'I' for Inactive)
REMARK    1  A    between atoms: C_6  and  C_7 
REMARK    2  A    between atoms: C_7  and  O_8 
REMARK    3  A    between atoms: O_8  and  C_9 
REMARK       I    between atoms: C_9  and  N_10 
REMARK    4  A    between atoms: C_24  and  O_25 
REMARK    5  A    between atoms: C_24  and  O_26 
ROOT
ATOM      1  N           0     134.932 130.316 145.288  0.00  0.00    -0.235 N 
ATOM      2  H           0     135.071 129.408 144.977  0.00  0.00     0.174 HD
ATOM      3  H           0     134.691 130.480 146.213  0.00  0.00     0.174 HD
ATOM      4  C           0     135.076 131.316 144.465  0.00  0.00     0.672 C 
ATOM      5  N           0     135.426 131.133 143.139  0.00  0.00    -0.218 N 
ATOM      6  C           0     134.971 132.117 142.159  0.00  0.00     0.151 C 
ATOM      7  C           0     135.302 133.539 142.566  0.00  0.00     0.180 C 
ATOM      8  N           0     136.734 133.800 142.300  0.00  0.00    -0.216 N 
ATOM      9  C           0     137.221 134.546 143.346  0.00  0.00     0.670 C 
ATOM     10  N           0     138.314 135.256 143.292  0.00  0.00    -0.235 N 
ATOM     11  H           0     138.838 135.278 142.476  0.00  0.00     0.174 HD
ATOM     12  H           0     138.602 135.761 144.067  0.00  0.00     0.174 HD
ATOM     13  C           0     135.153 133.812 144.054  0.00  0.00     0.217 C 
ATOM     14  N           0     136.415 134.454 144.453  0.00  0.00    -0.191 N 
ATOM     15  N           0     134.886 132.619 144.858  0.00  0.00    -0.179 N 
ATOM     16  C           0     134.322 133.089 146.131  0.00  0.00     0.106 C 
ATOM     17  C           0     135.431 133.225 147.177  0.00  0.00     0.033 C 
ATOM     18  C           0     133.687 134.469 145.854  0.00  0.00     0.098 C 
ATOM     19  C           0     133.966 134.750 144.351  0.00  0.00     0.210 C 
ATOM     20  H           0     135.961 130.371 142.867  0.00  0.00     0.178 HD
ATOM     21  H           0     137.238 133.498 141.528  0.00  0.00     0.178 HD
ATOM     22  H           0     136.639 134.762 145.345  0.00  0.00     0.180 HD
ENDROOT
BRANCH   6  23
ATOM     23  C           0     133.455 131.990 141.999  0.00  0.00     0.208 C 
BRANCH  23  24
ATOM     24  O           0     132.971 133.038 141.120  0.00  0.00    -0.302 OA
BRANCH  24  25
ATOM     25  C           0     131.692 133.029 140.700  0.00  0.00     0.358 C 
ATOM     26  N           0     131.412 133.152 139.388  0.00  0.00    -0.346 N 
ATOM     27  H           0     132.133 133.248 138.745  0.00  0.00     0.161 HD
ATOM     28  H           0     130.490 133.145 139.086  0.00  0.00     0.161 HD
ATOM     29  O           0     130.790 132.909 141.506  0.00  0.00    -0.239 OA
ENDBRANCH  24  25
ENDBRANCH  23  24
ENDBRANCH   6  23
BRANCH  19  30
ATOM     30  O           0     134.327 136.118 144.150  0.00  0.00    -0.362 OA
ATOM     31  H           0     134.143 136.580 144.978  0.00  0.00     0.213 HD
ENDBRANCH  19  30
BRANCH  19  32
ATOM     32  O           0     132.835 134.399 143.551  0.00  0.00    -0.362 OA
ATOM     33  H           0     132.067 134.399 144.138  0.00  0.00     0.213 HD
ENDBRANCH  19  32
TORSDOF 5
ENDMDL
MODEL 5
REMARK VINA RESULT:      -7.5      2.078      3.674
REMARK  5 active torsions:
REMARK  status: ('A' for Active; 'I' for Inactive)
REMARK    1  A    between atoms: C_6  and  C_7 
REMARK    2  A    between atoms: C_7  and  O_8 
REMARK    3  A    between atoms: O_8  and  C_9 
REMARK       I    between atoms: C_9  and  N_10 
REMARK    4  A    between atoms: C_24  and  O_25 
REMARK    5  A    between atoms: C_24  and  O_26 
ROOT
ATOM      1  N           0     135.909 130.245 143.236  0.00  0.00    -0.235 N 
ATOM      2  H           0     136.125 129.777 142.415  0.00  0.00     0.174 HD
ATOM      3  H           0     135.740 129.744 144.050  0.00  0.00     0.174 HD
ATOM      4  C           0     135.850 131.547 143.249  0.00  0.00     0.672 C 
ATOM      5  N           0     136.089 132.305 142.116  0.00  0.00    -0.218 N 
ATOM      6  C           0     135.426 133.601 141.996  0.00  0.00     0.151 C 
ATOM      7  C           0     135.622 134.470 143.223  0.00  0.00     0.180 C 
ATOM      8  N           0     136.979 135.057 143.191  0.00  0.00    -0.216 N 
ATOM      9  C           0     137.472 135.034 144.473  0.00  0.00     0.670 C 
ATOM     10  N           0     138.461 135.774 144.890  0.00  0.00    -0.235 N 
ATOM     11  H           0     138.897 136.390 144.280  0.00  0.00     0.174 HD
ATOM     12  H           0     138.760 135.708 145.810  0.00  0.00     0.174 HD
ATOM     13  C           0     135.586 133.708 144.538  0.00  0.00     0.217 C 
ATOM     14  N           0     136.794 134.135 145.259  0.00  0.00    -0.191 N 
ATOM     15  N           0     135.544 132.253 144.386  0.00  0.00    -0.179 N 
ATOM     16  C           0     135.055 131.713 145.663  0.00  0.00     0.106 C 
ATOM     17  C           0     136.236 131.324 146.554  0.00  0.00     0.033 C 
ATOM     18  C           0     134.235 132.835 146.335  0.00  0.00     0.098 C 
ATOM     19  C           0     134.330 134.045 145.365  0.00  0.00     0.210 C 
ATOM     20  H           0     136.682 131.983 141.419  0.00  0.00     0.178 HD
ATOM     21  H           0     137.437 135.397 142.406  0.00  0.00     0.178 HD
ATOM     22  H           0     137.066 133.837 146.142  0.00  0.00     0.180 HD
ENDROOT
BRANCH   6  23
ATOM     23  C           0     133.928 133.372 141.788  0.00  0.00     0.208 C 
BRANCH  23  24
ATOM     24  O           0     133.304 134.609 141.355  0.00  0.00    -0.302 OA
BRANCH  24  25
ATOM     25  C           0     133.190 134.881 140.041  0.00  0.00     0.358 C 
ATOM     26  N           0     133.541 136.094 139.571  0.00  0.00    -0.346 N 
ATOM     27  H           0     133.875 136.772 140.180  0.00  0.00     0.161 HD
ATOM     28  H           0     133.458 136.290 138.625  0.00  0.00     0.161 HD
ATOM     29  O           0     132.771 134.032 139.279  0.00  0.00    -0.239 OA
ENDBRANCH  24  25
ENDBRANCH  23  24
ENDBRANCH   6  23
BRANCH  19  30
ATOM     30  O           0     134.502 135.264 146.091  0.00  0.00    -0.362 OA
ATOM     31  H           0     134.067 135.144 146.945  0.00  0.00     0.213 HD
ENDBRANCH  19  30
BRANCH  19  32
ATOM     32  O           0     133.177 134.113 144.524  0.00  0.00    -0.362 OA
ATOM     33  H           0     132.996 135.051 144.372  0.00  0.00     0.213 HD
ENDBRANCH  19  32
TORSDOF 5
ENDMDL
MODEL 6
REMARK VINA RESULT:      -7.3      2.639      5.436
REMARK  5 active torsions:
REMARK  status: ('A' for Active; 'I' for Inactive)
REMARK    1  A    between atoms: C_6  and  C_7 
REMARK    2  A    between atoms: C_7  and  O_8 
REMARK    3  A    between atoms: O_8  and  C_9 
REMARK       I    between atoms: C_9  and  N_10 
REMARK    4  A    between atoms: C_24  and  O_25 
REMARK    5  A    between atoms: C_24  and  O_26 
ROOT
ATOM      1  N           0     135.821 130.505 143.203  0.00  0.00    -0.235 N 
ATOM      2  H           0     136.321 129.757 143.564  0.00  0.00     0.174 HD
ATOM      3  H           0     135.450 130.454 142.308  0.00  0.00     0.174 HD
ATOM      4  C           0     135.643 131.578 143.921  0.00  0.00     0.672 C 
ATOM      5  N           0     136.147 131.696 145.204  0.00  0.00    -0.218 N 
ATOM      6  C           0     136.483 133.029 145.698  0.00  0.00     0.151 C 
ATOM      7  C           0     135.349 134.019 145.519  0.00  0.00     0.180 C 
ATOM      8  N           0     134.332 133.786 146.568  0.00  0.00    -0.216 N 
ATOM      9  C           0     133.095 133.929 145.986  0.00  0.00     0.670 C 
ATOM     10  N           0     131.996 134.152 146.651  0.00  0.00    -0.235 N 
ATOM     11  H           0     132.019 134.224 147.618  0.00  0.00     0.174 HD
ATOM     12  H           0     131.154 134.243 146.178  0.00  0.00     0.174 HD
ATOM     13  C           0     134.577 133.853 144.221  0.00  0.00     0.217 C 
ATOM     14  N           0     133.162 133.812 144.620  0.00  0.00    -0.191 N 
ATOM     15  N           0     134.946 132.664 143.451  0.00  0.00    -0.179 N 
ATOM     16  C           0     134.481 132.895 142.076  0.00  0.00     0.106 C 
ATOM     17  C           0     133.098 132.270 141.879  0.00  0.00     0.033 C 
ATOM     18  C           0     134.401 134.424 141.883  0.00  0.00     0.098 C 
ATOM     19  C           0     134.818 135.029 143.253  0.00  0.00     0.210 C 
ATOM     20  H           0     136.273 130.913 145.762  0.00  0.00     0.178 HD
ATOM     21  H           0     134.507 133.571 147.498  0.00  0.00     0.178 HD
ATOM     22  H           0     132.404 133.720 144.021  0.00  0.00     0.180 HD
ENDROOT
BRANCH   6  23
ATOM     23  C           0     137.709 133.542 144.939  0.00  0.00     0.208 C 
BRANCH  23  24
ATOM     24  O           0     138.768 132.551 145.002  0.00  0.00    -0.302 OA
BRANCH  24  25
ATOM     25  C           0     139.977 132.887 145.490  0.00  0.00     0.358 C 
ATOM     26  N           0     140.083 133.410 146.727  0.00  0.00    -0.346 N 
ATOM     27  H           0     139.288 133.546 147.266  0.00  0.00     0.161 HD
ATOM     28  H           0     140.955 133.653 147.078  0.00  0.00     0.161 HD
ATOM     29  O           0     140.972 132.718 144.814  0.00  0.00    -0.239 OA
ENDBRANCH  24  25
ENDBRANCH  23  24
ENDBRANCH   6  23
BRANCH  19  30
ATOM     30  O           0     133.994 136.148 143.585  0.00  0.00    -0.362 OA
ATOM     31  H           0     133.102 135.939 143.275  0.00  0.00     0.213 HD
ENDBRANCH  19  30
BRANCH  19  32
ATOM     32  O           0     136.198 135.398 143.245  0.00  0.00    -0.362 OA
ATOM     33  H           0     136.230 136.363 143.304  0.00  0.00     0.213 HD
ENDBRANCH  19  32
TORSDOF 5
ENDMDL
MODEL 7
REMARK VINA RESULT:      -7.3      3.313      5.118
REMARK  5 active torsions:
REMARK  status: ('A' for Active; 'I' for Inactive)
REMARK    1  A    between atoms: C_6  and  C_7 
REMARK    2  A    between atoms: C_7  and  O_8 
REMARK    3  A    between atoms: O_8  and  C_9 
REMARK       I    between atoms: C_9  and  N_10 
REMARK    4  A    between atoms: C_24  and  O_25 
REMARK    5  A    between atoms: C_24  and  O_26 
ROOT
ATOM      1  N           0     134.997 130.192 145.600  0.00  0.00    -0.235 N 
ATOM      2  H           0     134.199 129.727 145.303  0.00  0.00     0.174 HD
ATOM      3  H           0     135.655 129.728 146.140  0.00  0.00     0.174 HD
ATOM      4  C           0     135.187 131.438 145.269  0.00  0.00     0.672 C 
ATOM      5  N           0     134.280 132.140 144.494  0.00  0.00    -0.218 N 
ATOM      6  C           0     134.186 133.586 144.675  0.00  0.00     0.151 C 
ATOM      7  C           0     135.537 134.271 144.598  0.00  0.00     0.180 C 
ATOM      8  N           0     135.943 134.381 143.180  0.00  0.00    -0.216 N 
ATOM      9  C           0     137.291 134.124 143.114  0.00  0.00     0.670 C 
ATOM     10  N           0     138.055 134.473 142.117  0.00  0.00    -0.235 N 
ATOM     11  H           0     137.678 134.946 141.359  0.00  0.00     0.174 HD
ATOM     12  H           0     139.001 134.260 142.133  0.00  0.00     0.174 HD
ATOM     13  C           0     136.669 133.489 145.241  0.00  0.00     0.217 C 
ATOM     14  N           0     137.734 133.454 144.227  0.00  0.00    -0.191 N 
ATOM     15  N           0     136.298 132.139 145.669  0.00  0.00    -0.179 N 
ATOM     16  C           0     137.310 131.717 146.648  0.00  0.00     0.106 C 
ATOM     17  C           0     138.408 130.911 145.952  0.00  0.00     0.033 C 
ATOM     18  C           0     137.905 133.005 147.256  0.00  0.00     0.098 C 
ATOM     19  C           0     137.184 134.171 146.525  0.00  0.00     0.210 C 
ATOM     20  H           0     133.720 131.682 143.847  0.00  0.00     0.178 HD
ATOM     21  H           0     135.364 134.597 142.432  0.00  0.00     0.178 HD
ATOM     22  H           0     138.602 133.032 144.328  0.00  0.00     0.180 HD
ENDROOT
BRANCH   6  23
ATOM     23  C           0     133.566 133.873 146.044  0.00  0.00     0.208 C 
BRANCH  23  24
ATOM     24  O           0     133.276 135.291 146.157  0.00  0.00    -0.302 OA
BRANCH  24  25
ATOM     25  C           0     132.929 135.816 147.347  0.00  0.00     0.358 C 
ATOM     26  N           0     131.771 136.493 147.473  0.00  0.00    -0.346 N 
ATOM     27  H           0     131.187 136.604 146.706  0.00  0.00     0.161 HD
ATOM     28  H           0     131.521 136.871 148.332  0.00  0.00     0.161 HD
ATOM     29  O           0     133.660 135.677 148.308  0.00  0.00    -0.239 OA
ENDBRANCH  24  25
ENDBRANCH  23  24
ENDBRANCH   6  23
BRANCH  19  30
ATOM     30  O           0     138.102 135.222 146.217  0.00  0.00    -0.362 OA
ATOM     31  H           0     137.988 135.900 146.896  0.00  0.00     0.213 HD
ENDBRANCH  19  30
BRANCH  19  32
ATOM     32  O           0     136.093 134.661 147.306  0.00  0.00    -0.362 OA
ATOM     33  H           0     136.262 134.397 148.220  0.00  0.00     0.213 HD
ENDBRANCH  19  32
TORSDOF 5
ENDMDL
MODEL 8
REMARK VINA RESULT:      -7.2      2.729      5.501
REMARK  5 active torsions:
REMARK  status: ('A' for Active; 'I' for Inactive)
REMARK    1  A    between atoms: C_6  and  C_7 
REMARK    2  A    between atoms: C_7  and  O_8 
REMARK    3  A    between atoms: O_8  and  C_9 
REMARK       I    between atoms: C_9  and  N_10 
REMARK    4  A    between atoms: C_24  and  O_25 
REMARK    5  A    between atoms: C_24  and  O_26 
ROOT
ATOM      1  N           0     133.111 133.563 145.633  0.00  0.00    -0.235 N 
ATOM      2  H           0     132.591 133.431 146.441  0.00  0.00     0.174 HD
ATOM      3  H           0     132.681 133.887 144.827  0.00  0.00     0.174 HD
ATOM      4  C           0     134.390 133.310 145.633  0.00  0.00     0.672 C 
ATOM      5  N           0     135.049 132.852 146.760  0.00  0.00    -0.218 N 
ATOM      6  C           0     136.232 132.015 146.580  0.00  0.00     0.151 C 
ATOM      7  C           0     137.243 132.632 145.632  0.00  0.00     0.180 C 
ATOM      8  N           0     137.988 133.694 146.343  0.00  0.00    -0.216 N 
ATOM      9  C           0     138.161 134.738 145.466  0.00  0.00     0.670 C 
ATOM     10  N           0     139.058 135.672 145.608  0.00  0.00    -0.235 N 
ATOM     11  H           0     139.657 135.658 146.372  0.00  0.00     0.174 HD
ATOM     12  H           0     139.127 136.382 144.951  0.00  0.00     0.174 HD
ATOM     13  C           0     136.624 133.353 144.446  0.00  0.00     0.217 C 
ATOM     14  N           0     137.272 134.673 144.421  0.00  0.00    -0.191 N 
ATOM     15  N           0     135.168 133.478 144.514  0.00  0.00    -0.179 N 
ATOM     16  C           0     134.707 133.753 143.145  0.00  0.00     0.106 C 
ATOM     17  C           0     134.564 135.262 142.934  0.00  0.00     0.033 C 
ATOM     18  C           0     135.782 133.187 142.192  0.00  0.00     0.098 C 
ATOM     19  C           0     136.886 132.611 143.120  0.00  0.00     0.210 C 
ATOM     20  H           0     134.734 133.082 147.648  0.00  0.00     0.178 HD
ATOM     21  H           0     138.299 133.660 147.261  0.00  0.00     0.178 HD
ATOM     22  H           0     137.104 135.378 143.776  0.00  0.00     0.180 HD
ENDROOT
BRANCH   6  23
ATOM     23  C           0     135.797 130.659 146.021  0.00  0.00     0.208 C 
BRANCH  23  24
ATOM     24  O           0     136.182 129.608 146.946  0.00  0.00    -0.302 OA
BRANCH  24  25
ATOM     25  C           0     135.236 128.875 147.564  0.00  0.00     0.358 C 
ATOM     26  N           0     134.010 128.758 147.017  0.00  0.00    -0.346 N 
ATOM     27  H           0     133.809 129.203 146.178  0.00  0.00     0.161 HD
ATOM     28  H           0     133.329 128.229 147.463  0.00  0.00     0.161 HD
ATOM     29  O           0     135.489 128.319 148.614  0.00  0.00    -0.239 OA
ENDBRANCH  24  25
ENDBRANCH  23  24
ENDBRANCH   6  23
BRANCH  19  30
ATOM     30  O           0     138.186 132.912 142.609  0.00  0.00    -0.362 OA
ATOM     31  H           0     138.119 133.766 142.161  0.00  0.00     0.213 HD
ENDBRANCH  19  30
BRANCH  19  32
ATOM     32  O           0     136.721 131.202 143.292  0.00  0.00    -0.362 OA
ATOM     33  H           0     137.518 130.782 142.939  0.00  0.00     0.213 HD
ENDBRANCH  19  32
TORSDOF 5
ENDMDL
MODEL 9
REMARK VINA RESULT:      -7.2      2.822      5.423
REMARK  5 active torsions:
REMARK  status: ('A' for Active; 'I' for Inactive)
REMARK    1  A    between atoms: C_6  and  C_7 
REMARK    2  A    between atoms: C_7  and  O_8 
REMARK    3  A    between atoms: O_8  and  C_9 
REMARK       I    between atoms: C_9  and  N_10 
REMARK    4  A    between atoms: C_24  and  O_25 
REMARK    5  A    between atoms: C_24  and  O_26 
ROOT
ATOM      1  N           0     134.304 131.040 143.946  0.00  0.00    -0.235 N 
ATOM      2  H           0     133.625 130.496 144.375  0.00  0.00     0.174 HD
ATOM      3  H           0     134.836 130.671 143.224  0.00  0.00     0.174 HD
ATOM      4  C           0     134.497 132.269 144.335  0.00  0.00     0.672 C 
ATOM      5  N           0     133.759 132.842 145.356  0.00  0.00    -0.218 N 
ATOM      6  C           0     134.381 133.894 146.155  0.00  0.00     0.151 C 
ATOM      7  C           0     134.982 134.994 145.302  0.00  0.00     0.180 C 
ATOM      8  N           0     133.900 135.876 144.814  0.00  0.00    -0.216 N 
ATOM      9  C           0     134.190 136.208 143.513  0.00  0.00     0.670 C 
ATOM     10  N           0     133.676 137.229 142.886  0.00  0.00    -0.235 N 
ATOM     11  H           0     133.045 137.810 143.340  0.00  0.00     0.174 HD
ATOM     12  H           0     133.924 137.408 141.966  0.00  0.00     0.174 HD
ATOM     13  C           0     135.651 134.500 144.031  0.00  0.00     0.217 C 
ATOM     14  N           0     135.088 135.332 142.956  0.00  0.00    -0.191 N 
ATOM     15  N           0     135.448 133.076 143.761  0.00  0.00    -0.179 N 
ATOM     16  C           0     136.497 132.677 142.811  0.00  0.00     0.106 C 
ATOM     17  C           0     135.963 132.755 141.379  0.00  0.00     0.033 C 
ATOM     18  C           0     137.664 133.670 142.993  0.00  0.00     0.098 C 
ATOM     19  C           0     137.182 134.669 144.082  0.00  0.00     0.210 C 
ATOM     20  H           0     132.851 132.552 145.535  0.00  0.00     0.178 HD
ATOM     21  H           0     133.126 136.168 145.321  0.00  0.00     0.178 HD
ATOM     22  H           0     135.314 135.274 142.014  0.00  0.00     0.180 HD
ENDROOT
BRANCH   6  23
ATOM     23  C           0     135.486 133.275 147.013  0.00  0.00     0.208 C 
BRANCH  23  24
ATOM     24  O           0     134.921 132.237 147.857  0.00  0.00    -0.302 OA
BRANCH  24  25
ATOM     25  C           0     135.377 130.974 147.768  0.00  0.00     0.358 C 
ATOM     26  N           0     134.521 129.964 147.517  0.00  0.00    -0.346 N 
ATOM     27  H           0     133.575 130.148 147.402  0.00  0.00     0.161 HD
ATOM     28  H           0     134.850 129.054 147.454  0.00  0.00     0.161 HD
ATOM     29  O           0     136.562 130.744 147.913  0.00  0.00    -0.239 OA
ENDBRANCH  24  25
ENDBRANCH  23  24
ENDBRANCH   6  23
BRANCH  19  30
ATOM     30  O           0     137.566 136.005 143.749  0.00  0.00    -0.362 OA
ATOM     31  H           0     137.076 136.245 142.952  0.00  0.00     0.213 HD
ENDBRANCH  19  30
BRANCH  19  32
ATOM     32  O           0     137.686 134.300 145.367  0.00  0.00    -0.362 OA
ATOM     33  H           0     136.934 133.971 145.878  0.00  0.00     0.213 HD
ENDBRANCH  19  32
TORSDOF 5
ENDMDL
