# created with PyMOL 2.3.4
@<TRIPOS>MOLECULE
ligand_out_0001
33 35 1                 
SMALL
USER_CHARGES
@<TRIPOS>ATOM
1	   N	135.475	136.807	143.284	N.3	1	UNK0	-0.235	
2	   N	133.908	135.057	143.382	N.3	1	UNK0	-0.218	
3	   N	133.983	132.438	145.012	N.3	1	UNK0	-0.216	
4	   N	134.924	131.803	147.088	N.3	1	UNK0	-0.235	
5	   N	136.162	132.938	145.421	N.3	1	UNK0	-0.191	
6	   N	136.182	134.606	143.666	N.3	1	UNK0	-0.179	
7	   N	133.563	136.171	139.771	N.pl3	1	UNK0	-0.346	
8	   C	135.203	135.542	143.439	C.3	1	UNK0	0.672	
9	   C	133.702	133.683	142.932	C.3	1	UNK0	0.151	
10	   C	134.570	132.689	143.678	C.3	1	UNK0	0.180	
11	   C	135.018	132.359	145.913	C.3	1	UNK0	0.670	
12	   C	135.970	133.194	143.986	C.3	1	UNK0	0.217	
13	   C	137.636	134.802	143.576	C.3	1	UNK0	0.106	
14	   C	138.182	135.295	144.917	C.3	1	UNK0	0.033	
15	   C	138.249	133.428	143.230	C.3	1	UNK0	0.098	
16	   C	137.044	132.449	143.168	C.3	1	UNK0	0.210	
17	   C	134.028	133.598	141.439	C.2	1	UNK0	0.208	
18	   C	133.139	134.903	139.599	C.2	1	UNK0	0.358	
19	   O	132.912	134.118	140.669	O.2	1	UNK0	-0.302	
20	   O	132.963	134.468	138.479	O.co2	1	UNK0	-0.239	
21	   O	137.376	131.197	143.773	O.2	1	UNK0	-0.362	
22	   O	136.610	132.262	141.820	O.2	1	UNK0	-0.362	
23	   H	134.760	137.442	143.122	 H	1	UNK0	0.174	
24	   H	136.394	137.115	143.335	 H	1	UNK0	0.174	
25	   H	134.084	131.412	147.375	 H	1	UNK0	0.174	
26	   H	135.694	131.781	147.677	 H	1	UNK0	0.174	
27	   H	133.157	135.615	143.636	 H	1	UNK0	0.178	
28	   H	133.039	132.346	145.215	 H	1	UNK0	0.178	
29	   H	136.960	133.139	145.934	 H	1	UNK0	0.180	
30	   H	133.702	136.518	140.667	 H	1	UNK0	0.161	
31	   H	133.726	136.736	139.000	 H	1	UNK0	0.161	
32	   H	136.568	130.862	144.182	 H	1	UNK0	0.213	
33	   H	135.649	132.368	141.818	 H	1	UNK0	0.213	
@<TRIPOS>BOND
1 1 8 1
2 1 23 1
3 1 24 1
4 2 9 1
5 2 27 1
6 3 11 1
7 3 28 1
8 4 25 1
9 4 26 1
10 5 29 1
11 6 13 1
12 7 30 1
13 7 31 1
14 2 8 1
15 6 8 1
16 9 10 1
17 9 17 1
18 3 10 1
19 10 12 1
20 4 11 1
21 5 11 1
22 5 12 1
23 6 12 1
24 12 16 1
25 13 14 1
26 13 15 1
27 15 16 1
28 16 21 2
29 16 22 2
30 17 19 2
31 7 18 1
32 18 20 2
33 18 19 2
34 21 32 1
35 22 33 1
@<TRIPOS>SUBSTRUCTURE
1	UNK0	1	GROUP	1 ****	UNK
