# created with PyMOL 2.3.4
@<TRIPOS>MOLECULE
ligand_out_0001
32 34 1                 
SMALL
USER_CHARGES
@<TRIPOS>ATOM
1	   N	135.023	136.783	143.151	N.3	1	UNK0	-0.235	
2	   N	133.774	134.793	143.028	N.3	1	UNK0	-0.218	
3	   N	134.092	132.195	144.652	N.3	1	UNK0	-0.216	
4	   N	134.871	131.674	146.824	N.3	1	UNK0	-0.235	
5	   N	136.097	133.026	145.321	N.3	1	UNK0	-0.191	
6	   N	136.034	134.718	143.594	N.3	1	UNK0	-0.183	
7	   N	133.564	135.998	139.895	N.pl3	1	UNK0	-0.346	
8	   C	134.950	135.486	143.256	C.3	1	UNK0	0.672	
9	   C	133.862	133.416	142.551	C.3	1	UNK0	0.151	
10	   C	134.785	132.563	143.399	C.3	1	UNK0	0.180	
11	   C	135.011	132.262	145.670	C.3	1	UNK0	0.670	
12	   C	136.037	133.282	143.872	C.3	1	UNK0	0.217	
13	   C	137.444	135.139	143.697	C.3	1	UNK0	0.150	
14	   C	138.240	133.967	143.073	C.3	1	UNK0	0.093	
15	   C	137.305	132.736	143.193	C.3	1	UNK0	0.209	
16	   C	134.383	133.425	141.113	C.2	1	UNK0	0.208	
17	   C	133.342	134.770	139.385	C.2	1	UNK0	0.358	
18	   O	133.287	133.701	140.202	O.2	1	UNK0	-0.302	
19	   O	133.192	134.628	138.188	O.co2	1	UNK0	-0.239	
20	   O	137.914	131.727	144.000	O.2	1	UNK0	-0.362	
21	   O	136.992	132.220	141.898	O.2	1	UNK0	-0.362	
22	   H	134.238	137.295	142.906	 H	1	UNK0	0.174	
23	   H	135.864	137.236	143.321	 H	1	UNK0	0.174	
24	   H	134.077	131.147	147.006	 H	1	UNK0	0.174	
25	   H	135.561	131.762	147.500	 H	1	UNK0	0.174	
26	   H	132.913	135.212	143.183	 H	1	UNK0	0.178	
27	   H	133.157	131.949	144.740	 H	1	UNK0	0.178	
28	   H	136.787	133.342	145.925	 H	1	UNK0	0.180	
29	   H	133.684	136.112	140.852	 H	1	UNK0	0.161	
30	   H	133.603	136.768	139.307	 H	1	UNK0	0.161	
31	   H	137.781	130.885	143.541	 H	1	UNK0	0.213	
32	   H	136.102	132.531	141.682	 H	1	UNK0	0.213	
@<TRIPOS>BOND
1 1 8 1
2 1 22 1
3 1 23 1
4 2 9 1
5 2 26 1
6 3 11 1
7 3 27 1
8 4 24 1
9 4 25 1
10 5 28 1
11 6 13 1
12 7 29 1
13 7 30 1
14 2 8 1
15 6 8 1
16 9 10 1
17 9 16 1
18 3 10 1
19 10 12 1
20 4 11 1
21 5 11 1
22 5 12 1
23 6 12 1
24 12 15 1
25 13 14 1
26 14 15 1
27 15 20 2
28 15 21 2
29 16 18 2
30 7 17 1
31 17 19 2
32 17 18 2
33 20 31 1
34 21 32 1
@<TRIPOS>SUBSTRUCTURE
1	UNK0	1	GROUP	1 ****	UNK
