MODEL 1
REMARK VINA RESULT:      -8.0      0.000      0.000
REMARK  5 active torsions:
REMARK  status: ('A' for Active; 'I' for Inactive)
REMARK    1  A    between atoms: C_6  and  C_7 
REMARK    2  A    between atoms: C_7  and  O_8 
REMARK    3  A    between atoms: O_8  and  C_9 
REMARK       I    between atoms: C_9  and  N_10 
REMARK    4  A    between atoms: C_23  and  O_24 
REMARK    5  A    between atoms: C_23  and  O_25 
ROOT
ATOM      1  N           0     135.023 136.783 143.151  0.00  0.00    -0.235 N 
ATOM      2  H           0     134.238 137.295 142.906  0.00  0.00     0.174 HD
ATOM      3  H           0     135.864 137.236 143.321  0.00  0.00     0.174 HD
ATOM      4  C           0     134.950 135.486 143.256  0.00  0.00     0.672 C 
ATOM      5  N           0     133.774 134.793 143.028  0.00  0.00    -0.218 N 
ATOM      6  C           0     133.862 133.416 142.551  0.00  0.00     0.151 C 
ATOM      7  C           0     134.785 132.563 143.399  0.00  0.00     0.180 C 
ATOM      8  N           0     134.092 132.195 144.652  0.00  0.00    -0.216 N 
ATOM      9  C           0     135.011 132.262 145.670  0.00  0.00     0.670 C 
ATOM     10  N           0     134.871 131.674 146.824  0.00  0.00    -0.235 N 
ATOM     11  H           0     134.077 131.147 147.006  0.00  0.00     0.174 HD
ATOM     12  H           0     135.561 131.762 147.500  0.00  0.00     0.174 HD
ATOM     13  C           0     136.037 133.282 143.872  0.00  0.00     0.217 C 
ATOM     14  N           0     136.097 133.026 145.321  0.00  0.00    -0.191 N 
ATOM     15  N           0     136.034 134.718 143.594  0.00  0.00    -0.183 N 
ATOM     16  C           0     137.444 135.139 143.697  0.00  0.00     0.150 C 
ATOM     17  C           0     138.240 133.967 143.073  0.00  0.00     0.093 C 
ATOM     18  C           0     137.305 132.736 143.193  0.00  0.00     0.209 C 
ATOM     19  H           0     132.913 135.212 143.183  0.00  0.00     0.178 HD
ATOM     20  H           0     133.157 131.949 144.740  0.00  0.00     0.178 HD
ATOM     21  H           0     136.787 133.342 145.925  0.00  0.00     0.180 HD
ENDROOT
BRANCH   6  22
ATOM     22  C           0     134.383 133.425 141.113  0.00  0.00     0.208 C 
BRANCH  22  23
ATOM     23  O           0     133.287 133.701 140.202  0.00  0.00    -0.302 OA
BRANCH  23  24
ATOM     24  C           0     133.342 134.770 139.385  0.00  0.00     0.358 C 
ATOM     25  N           0     133.564 135.998 139.895  0.00  0.00    -0.346 N 
ATOM     26  H           0     133.684 136.112 140.852  0.00  0.00     0.161 HD
ATOM     27  H           0     133.603 136.768 139.307  0.00  0.00     0.161 HD
ATOM     28  O           0     133.192 134.628 138.188  0.00  0.00    -0.239 OA
ENDBRANCH  23  24
ENDBRANCH  22  23
ENDBRANCH   6  22
BRANCH  18  29
ATOM     29  O           0     137.914 131.727 144.000  0.00  0.00    -0.362 OA
ATOM     30  H           0     137.781 130.885 143.541  0.00  0.00     0.213 HD
ENDBRANCH  18  29
BRANCH  18  31
ATOM     31  O           0     136.992 132.220 141.898  0.00  0.00    -0.362 OA
ATOM     32  H           0     136.102 132.531 141.682  0.00  0.00     0.213 HD
ENDBRANCH  18  31
TORSDOF 5
ENDMDL
MODEL 2
REMARK VINA RESULT:      -7.5      1.924      5.629
REMARK  5 active torsions:
REMARK  status: ('A' for Active; 'I' for Inactive)
REMARK    1  A    between atoms: C_6  and  C_7 
REMARK    2  A    between atoms: C_7  and  O_8 
REMARK    3  A    between atoms: O_8  and  C_9 
REMARK       I    between atoms: C_9  and  N_10 
REMARK    4  A    between atoms: C_23  and  O_24 
REMARK    5  A    between atoms: C_23  and  O_25 
ROOT
ATOM      1  N           0     134.756 131.876 146.530  0.00  0.00    -0.235 N 
ATOM      2  H           0     134.987 131.924 147.470  0.00  0.00     0.174 HD
ATOM      3  H           0     134.087 131.241 146.227  0.00  0.00     0.174 HD
ATOM      4  C           0     135.340 132.666 145.673  0.00  0.00     0.672 C 
ATOM      5  N           0     136.297 133.590 146.056  0.00  0.00    -0.218 N 
ATOM      6  C           0     137.319 133.971 145.086  0.00  0.00     0.151 C 
ATOM      7  C           0     136.731 134.388 143.752  0.00  0.00     0.180 C 
ATOM      8  N           0     136.183 135.756 143.869  0.00  0.00    -0.216 N 
ATOM      9  C           0     135.008 135.794 143.159  0.00  0.00     0.670 C 
ATOM     10  N           0     134.441 136.890 142.738  0.00  0.00    -0.235 N 
ATOM     11  H           0     134.852 137.749 142.922  0.00  0.00     0.174 HD
ATOM     12  H           0     133.610 136.846 142.240  0.00  0.00     0.174 HD
ATOM     13  C           0     135.540 133.554 143.309  0.00  0.00     0.217 C 
ATOM     14  N           0     134.503 134.535 142.947  0.00  0.00    -0.191 N 
ATOM     15  N           0     135.052 132.631 144.334  0.00  0.00    -0.183 N 
ATOM     16  C           0     134.241 131.636 143.608  0.00  0.00     0.150 C 
ATOM     17  C           0     135.016 131.399 142.289  0.00  0.00     0.093 C 
ATOM     18  C           0     135.875 132.674 142.092  0.00  0.00     0.209 C 
ATOM     19  H           0     136.287 133.975 146.946  0.00  0.00     0.178 HD
ATOM     20  H           0     136.580 136.494 144.358  0.00  0.00     0.178 HD
ATOM     21  H           0     133.617 134.328 142.613  0.00  0.00     0.180 HD
ENDROOT
BRANCH   6  22
ATOM     22  C           0     138.254 132.781 144.862  0.00  0.00     0.208 C 
BRANCH  22  23
ATOM     23  O           0     138.769 132.322 146.139  0.00  0.00    -0.302 OA
BRANCH  23  24
ATOM     24  C           0     138.675 131.021 146.475  0.00  0.00     0.358 C 
ATOM     25  N           0     139.791 130.274 146.595  0.00  0.00    -0.346 N 
ATOM     26  H           0     140.661 130.674 146.439  0.00  0.00     0.161 HD
ATOM     27  H           0     139.723 129.337 146.836  0.00  0.00     0.161 HD
ATOM     28  O           0     137.585 130.522 146.670  0.00  0.00    -0.239 OA
ENDBRANCH  23  24
ENDBRANCH  22  23
ENDBRANCH   6  22
BRANCH  18  29
ATOM     29  O           0     135.512 133.336 140.879  0.00  0.00    -0.362 OA
ATOM     30  H           0     134.552 133.260 140.795  0.00  0.00     0.213 HD
ENDBRANCH  18  29
BRANCH  18  31
ATOM     31  O           0     137.265 132.344 142.086  0.00  0.00    -0.362 OA
ATOM     32  H           0     137.452 131.940 141.227  0.00  0.00     0.213 HD
ENDBRANCH  18  31
TORSDOF 5
ENDMDL
MODEL 3
REMARK VINA RESULT:      -6.8      2.902      4.782
REMARK  5 active torsions:
REMARK  status: ('A' for Active; 'I' for Inactive)
REMARK    1  A    between atoms: C_6  and  C_7 
REMARK    2  A    between atoms: C_7  and  O_8 
REMARK    3  A    between atoms: O_8  and  C_9 
REMARK       I    between atoms: C_9  and  N_10 
REMARK    4  A    between atoms: C_23  and  O_24 
REMARK    5  A    between atoms: C_23  and  O_25 
ROOT
ATOM      1  N           0     139.632 130.588 146.011  0.00  0.00    -0.235 N 
ATOM      2  H           0     140.386 130.738 145.421  0.00  0.00     0.174 HD
ATOM      3  H           0     139.662 129.869 146.662  0.00  0.00     0.174 HD
ATOM      4  C           0     138.580 131.354 145.935  0.00  0.00     0.672 C 
ATOM      5  N           0     138.491 132.395 145.027  0.00  0.00    -0.218 N 
ATOM      6  C           0     137.168 132.787 144.552  0.00  0.00     0.151 C 
ATOM      7  C           0     136.189 133.031 145.685  0.00  0.00     0.180 C 
ATOM      8  N           0     136.474 134.345 146.299  0.00  0.00    -0.216 N 
ATOM      9  C           0     136.322 134.209 147.657  0.00  0.00     0.670 C 
ATOM     10  N           0     136.136 135.205 148.477  0.00  0.00    -0.235 N 
ATOM     11  H           0     136.098 136.113 148.136  0.00  0.00     0.174 HD
ATOM     12  H           0     136.036 135.039 149.427  0.00  0.00     0.174 HD
ATOM     13  C           0     136.319 132.051 146.840  0.00  0.00     0.217 C 
ATOM     14  N           0     136.389 132.894 148.045  0.00  0.00    -0.191 N 
ATOM     15  N           0     137.488 131.177 146.744  0.00  0.00    -0.183 N 
ATOM     16  C           0     137.208 130.050 147.653  0.00  0.00     0.150 C 
ATOM     17  C           0     135.696 129.777 147.469  0.00  0.00     0.093 C 
ATOM     18  C           0     135.108 131.107 146.932  0.00  0.00     0.209 C 
ATOM     19  H           0     139.287 132.852 144.716  0.00  0.00     0.178 HD
ATOM     20  H           0     136.722 135.156 145.829  0.00  0.00     0.178 HD
ATOM     21  H           0     136.466 132.575 148.958  0.00  0.00     0.180 HD
ENDROOT
BRANCH   6  22
ATOM     22  C           0     136.617 131.678 143.655  0.00  0.00     0.208 C 
BRANCH  22  23
ATOM     23  O           0     135.313 132.066 143.149  0.00  0.00    -0.302 OA
BRANCH  23  24
ATOM     24  C           0     135.205 133.091 142.281  0.00  0.00     0.358 C 
ATOM     25  N           0     135.880 133.062 141.116  0.00  0.00    -0.346 N 
ATOM     26  H           0     136.445 132.302 140.901  0.00  0.00     0.161 HD
ATOM     27  H           0     135.803 133.800 140.491  0.00  0.00     0.161 HD
ATOM     28  O           0     134.498 134.042 142.550  0.00  0.00    -0.239 OA
ENDBRANCH  23  24
ENDBRANCH  22  23
ENDBRANCH   6  22
BRANCH  18  29
ATOM     29  O           0     134.135 131.624 147.841  0.00  0.00    -0.362 OA
ATOM     30  H           0     134.605 131.848 148.657  0.00  0.00     0.213 HD
ENDBRANCH  18  29
BRANCH  18  31
ATOM     31  O           0     134.531 130.911 145.640  0.00  0.00    -0.362 OA
ATOM     32  H           0     133.598 131.156 145.711  0.00  0.00     0.213 HD
ENDBRANCH  18  31
TORSDOF 5
ENDMDL
MODEL 4
REMARK VINA RESULT:      -6.8      3.015      4.484
REMARK  5 active torsions:
REMARK  status: ('A' for Active; 'I' for Inactive)
REMARK    1  A    between atoms: C_6  and  C_7 
REMARK    2  A    between atoms: C_7  and  O_8 
REMARK    3  A    between atoms: O_8  and  C_9 
REMARK       I    between atoms: C_9  and  N_10 
REMARK    4  A    between atoms: C_23  and  O_24 
REMARK    5  A    between atoms: C_23  and  O_25 
ROOT
ATOM      1  N           0     136.070 134.645 147.257  0.00  0.00    -0.235 N 
ATOM      2  H           0     135.607 135.364 146.800  0.00  0.00     0.174 HD
ATOM      3  H           0     136.550 134.824 148.082  0.00  0.00     0.174 HD
ATOM      4  C           0     136.046 133.437 146.766  0.00  0.00     0.672 C 
ATOM      5  N           0     135.373 133.131 145.596  0.00  0.00    -0.218 N 
ATOM      6  C           0     135.861 132.017 144.789  0.00  0.00     0.151 C 
ATOM      7  C           0     136.053 130.749 145.598  0.00  0.00     0.180 C 
ATOM      8  N           0     134.735 130.128 145.848  0.00  0.00    -0.216 N 
ATOM      9  C           0     134.742 129.645 147.133  0.00  0.00     0.670 C 
ATOM     10  N           0     133.918 128.739 147.580  0.00  0.00    -0.235 N 
ATOM     11  H           0     133.246 128.362 146.990  0.00  0.00     0.174 HD
ATOM     12  H           0     133.978 128.441 148.501  0.00  0.00     0.174 HD
ATOM     13  C           0     136.618 130.980 146.990  0.00  0.00     0.217 C 
ATOM     14  N           0     135.723 130.234 147.891  0.00  0.00    -0.191 N 
ATOM     15  N           0     136.690 132.390 147.372  0.00  0.00    -0.183 N 
ATOM     16  C           0     137.639 132.442 148.499  0.00  0.00     0.150 C 
ATOM     17  C           0     138.736 131.416 148.122  0.00  0.00     0.093 C 
ATOM     18  C           0     138.055 130.447 147.123  0.00  0.00     0.209 C 
ATOM     19  H           0     134.597 133.643 145.321  0.00  0.00     0.178 HD
ATOM     20  H           0     133.999 130.071 145.218  0.00  0.00     0.178 HD
ATOM     21  H           0     135.813 130.169 148.854  0.00  0.00     0.180 HD
ENDROOT
BRANCH   6  22
ATOM     22  C           0     137.201 132.411 144.164  0.00  0.00     0.208 C 
BRANCH  22  23
ATOM     23  O           0     136.976 133.374 143.102  0.00  0.00    -0.302 OA
BRANCH  23  24
ATOM     24  C           0     137.497 134.613 143.194  0.00  0.00     0.358 C 
ATOM     25  N           0     136.718 135.644 143.577  0.00  0.00    -0.346 N 
ATOM     26  H           0     135.782 135.494 143.786  0.00  0.00     0.161 HD
ATOM     27  H           0     137.093 136.536 143.643  0.00  0.00     0.161 HD
ATOM     28  O           0     138.668 134.800 142.933  0.00  0.00    -0.239 OA
ENDBRANCH  23  24
ENDBRANCH  22  23
ENDBRANCH   6  22
BRANCH  18  29
ATOM     29  O           0     138.052 129.117 147.644  0.00  0.00    -0.362 OA
ATOM     30  H           0     138.788 128.650 147.224  0.00  0.00     0.213 HD
ENDBRANCH  18  29
BRANCH  18  31
ATOM     31  O           0     138.719 130.487 145.858  0.00  0.00    -0.362 OA
ATOM     32  H           0     138.050 130.294 145.186  0.00  0.00     0.213 HD
ENDBRANCH  18  31
TORSDOF 5
ENDMDL
MODEL 5
REMARK VINA RESULT:      -6.6      2.709      4.486
REMARK  5 active torsions:
REMARK  status: ('A' for Active; 'I' for Inactive)
REMARK    1  A    between atoms: C_6  and  C_7 
REMARK    2  A    between atoms: C_7  and  O_8 
REMARK    3  A    between atoms: O_8  and  C_9 
REMARK       I    between atoms: C_9  and  N_10 
REMARK    4  A    between atoms: C_23  and  O_24 
REMARK    5  A    between atoms: C_23  and  O_25 
ROOT
ATOM      1  N           0     134.815 129.925 145.103  0.00  0.00    -0.235 N 
ATOM      2  H           0     134.490 129.528 144.281  0.00  0.00     0.174 HD
ATOM      3  H           0     134.532 129.567 145.960  0.00  0.00     0.174 HD
ATOM      4  C           0     135.634 130.938 145.059  0.00  0.00     0.672 C 
ATOM      5  N           0     136.069 131.482 143.863  0.00  0.00    -0.218 N 
ATOM      6  C           0     136.430 132.896 143.836  0.00  0.00     0.151 C 
ATOM      7  C           0     137.404 133.272 144.936  0.00  0.00     0.180 C 
ATOM      8  N           0     138.758 132.811 144.564  0.00  0.00    -0.216 N 
ATOM      9  C           0     139.359 132.328 145.700  0.00  0.00     0.670 C 
ATOM     10  N           0     140.646 132.177 145.841  0.00  0.00    -0.235 N 
ATOM     11  H           0     141.244 132.413 145.115  0.00  0.00     0.174 HD
ATOM     12  H           0     141.005 131.830 146.673  0.00  0.00     0.174 HD
ATOM     13  C           0     137.137 132.583 146.265  0.00  0.00     0.217 C 
ATOM     14  N           0     138.437 132.023 146.670  0.00  0.00    -0.191 N 
ATOM     15  N           0     136.116 131.538 146.193  0.00  0.00    -0.183 N 
ATOM     16  C           0     135.684 131.318 147.586  0.00  0.00     0.150 C 
ATOM     17  C           0     135.671 132.735 148.211  0.00  0.00     0.093 C 
ATOM     18  C           0     136.637 133.571 147.334  0.00  0.00     0.209 C 
ATOM     19  H           0     136.134 130.937 143.064  0.00  0.00     0.178 HD
ATOM     20  H           0     139.152 132.845 143.678  0.00  0.00     0.178 HD
ATOM     21  H           0     138.612 131.527 147.484  0.00  0.00     0.180 HD
ENDROOT
BRANCH   6  22
ATOM     22  C           0     135.159 133.733 143.997  0.00  0.00     0.208 C 
BRANCH  22  23
ATOM     23  O           0     135.413 135.091 143.552  0.00  0.00    -0.302 OA
BRANCH  23  24
ATOM     24  C           0     134.534 135.709 142.740  0.00  0.00     0.358 C 
ATOM     25  N           0     134.510 137.055 142.674  0.00  0.00    -0.346 N 
ATOM     26  H           0     135.125 137.579 143.212  0.00  0.00     0.161 HD
ATOM     27  H           0     133.876 137.501 142.090  0.00  0.00     0.161 HD
ATOM     28  O           0     133.763 135.053 142.068  0.00  0.00    -0.239 OA
ENDBRANCH  23  24
ENDBRANCH  22  23
ENDBRANCH   6  22
BRANCH  18  29
ATOM     29  O           0     137.727 134.056 148.119  0.00  0.00    -0.362 OA
ATOM     30  H           0     138.086 134.825 147.653  0.00  0.00     0.213 HD
ENDBRANCH  18  29
BRANCH  18  31
ATOM     31  O           0     135.940 134.657 146.720  0.00  0.00    -0.362 OA
ATOM     32  H           0     136.013 134.530 145.763  0.00  0.00     0.213 HD
ENDBRANCH  18  31
TORSDOF 5
ENDMDL
MODEL 6
REMARK VINA RESULT:      -6.6      2.922      5.727
REMARK  5 active torsions:
REMARK  status: ('A' for Active; 'I' for Inactive)
REMARK    1  A    between atoms: C_6  and  C_7 
REMARK    2  A    between atoms: C_7  and  O_8 
REMARK    3  A    between atoms: O_8  and  C_9 
REMARK       I    between atoms: C_9  and  N_10 
REMARK    4  A    between atoms: C_23  and  O_24 
REMARK    5  A    between atoms: C_23  and  O_25 
ROOT
ATOM      1  N           0     138.833 130.761 145.502  0.00  0.00    -0.235 N 
ATOM      2  H           0     138.964 130.067 146.166  0.00  0.00     0.174 HD
ATOM      3  H           0     139.582 131.065 144.965  0.00  0.00     0.174 HD
ATOM      4  C           0     137.652 131.282 145.325  0.00  0.00     0.672 C 
ATOM      5  N           0     136.551 130.878 146.062  0.00  0.00    -0.218 N 
ATOM      6  C           0     135.479 131.843 146.289  0.00  0.00     0.151 C 
ATOM      7  C           0     135.005 132.502 145.009  0.00  0.00     0.180 C 
ATOM      8  N           0     134.142 131.559 144.267  0.00  0.00    -0.216 N 
ATOM      9  C           0     134.438 131.688 142.932  0.00  0.00     0.670 C 
ATOM     10  N           0     133.653 131.300 141.967  0.00  0.00    -0.235 N 
ATOM     11  H           0     132.798 130.890 142.173  0.00  0.00     0.174 HD
ATOM     12  H           0     133.923 131.421 141.044  0.00  0.00     0.174 HD
ATOM     13  C           0     136.120 132.826 144.027  0.00  0.00     0.217 C 
ATOM     14  N           0     135.663 132.276 142.740  0.00  0.00    -0.191 N 
ATOM     15  N           0     137.419 132.269 144.403  0.00  0.00    -0.183 N 
ATOM     16  C           0     138.412 133.033 143.626  0.00  0.00     0.150 C 
ATOM     17  C           0     137.869 134.483 143.632  0.00  0.00     0.093 C 
ATOM     18  C           0     136.348 134.342 143.896  0.00  0.00     0.209 C 
ATOM     19  H           0     136.494 129.978 146.416  0.00  0.00     0.178 HD
ATOM     20  H           0     133.484 130.959 144.653  0.00  0.00     0.178 HD
ATOM     21  H           0     136.144 132.324 141.899  0.00  0.00     0.180 HD
ENDROOT
BRANCH   6  22
ATOM     22  C           0     135.985 132.927 147.244  0.00  0.00     0.208 C 
BRANCH  22  23
ATOM     23  O           0     135.275 132.831 148.506  0.00  0.00    -0.302 OA
BRANCH  23  24
ATOM     24  C           0     134.643 131.689 148.838  0.00  0.00     0.358 C 
ATOM     25  N           0     133.296 131.651 148.872  0.00  0.00    -0.346 N 
ATOM     26  H           0     132.782 132.445 148.658  0.00  0.00     0.161 HD
ATOM     27  H           0     132.840 130.829 149.112  0.00  0.00     0.161 HD
ATOM     28  O           0     135.286 130.694 149.106  0.00  0.00    -0.239 OA
ENDBRANCH  23  24
ENDBRANCH  22  23
ENDBRANCH   6  22
BRANCH  18  29
ATOM     29  O           0     135.602 134.870 142.798  0.00  0.00    -0.362 OA
ATOM     30  H           0     136.191 135.475 142.325  0.00  0.00     0.213 HD
ENDBRANCH  18  29
BRANCH  18  31
ATOM     31  O           0     135.989 135.005 145.109  0.00  0.00    -0.362 OA
ATOM     32  H           0     135.328 135.672 144.878  0.00  0.00     0.213 HD
ENDBRANCH  18  31
TORSDOF 5
ENDMDL
MODEL 7
REMARK VINA RESULT:      -6.5      2.909      4.228
REMARK  5 active torsions:
REMARK  status: ('A' for Active; 'I' for Inactive)
REMARK    1  A    between atoms: C_6  and  C_7 
REMARK    2  A    between atoms: C_7  and  O_8 
REMARK    3  A    between atoms: O_8  and  C_9 
REMARK       I    between atoms: C_9  and  N_10 
REMARK    4  A    between atoms: C_23  and  O_24 
REMARK    5  A    between atoms: C_23  and  O_25 
ROOT
ATOM      1  N           0     137.172 135.342 148.517  0.00  0.00    -0.235 N 
ATOM      2  H           0     136.705 136.191 148.480  0.00  0.00     0.174 HD
ATOM      3  H           0     137.922 135.227 149.123  0.00  0.00     0.174 HD
ATOM      4  C           0     136.790 134.354 147.758  0.00  0.00     0.672 C 
ATOM      5  N           0     135.724 134.466 146.882  0.00  0.00    -0.218 N 
ATOM      6  C           0     135.728 133.640 145.679  0.00  0.00     0.151 C 
ATOM      7  C           0     135.972 132.173 145.978  0.00  0.00     0.180 C 
ATOM      8  N           0     134.732 131.573 146.513  0.00  0.00    -0.216 N 
ATOM      9  C           0     135.091 130.710 147.520  0.00  0.00     0.670 C 
ATOM     10  N           0     134.329 129.753 147.970  0.00  0.00    -0.235 N 
ATOM     11  H           0     133.448 129.616 147.590  0.00  0.00     0.174 HD
ATOM     12  H           0     134.645 129.178 148.684  0.00  0.00     0.174 HD
ATOM     13  C           0     137.000 131.925 147.070  0.00  0.00     0.217 C 
ATOM     14  N           0     136.350 130.980 147.994  0.00  0.00    -0.191 N 
ATOM     15  N           0     137.422 133.137 147.771  0.00  0.00    -0.183 N 
ATOM     16  C           0     138.689 132.783 148.436  0.00  0.00     0.150 C 
ATOM     17  C           0     139.416 131.874 147.415  0.00  0.00     0.093 C 
ATOM     18  C           0     138.293 131.304 146.512  0.00  0.00     0.209 C 
ATOM     19  H           0     134.994 135.077 147.064  0.00  0.00     0.178 HD
ATOM     20  H           0     133.829 131.755 146.209  0.00  0.00     0.178 HD
ATOM     21  H           0     136.746 130.610 148.798  0.00  0.00     0.180 HD
ENDROOT
BRANCH   6  22
ATOM     22  C           0     136.826 134.141 144.739  0.00  0.00     0.208 C 
BRANCH  22  23
ATOM     23  O           0     136.311 134.209 143.384  0.00  0.00    -0.302 OA
BRANCH  23  24
ATOM     24  C           0     136.563 133.210 142.517  0.00  0.00     0.358 C 
ATOM     25  N           0     135.868 133.126 141.365  0.00  0.00    -0.346 N 
ATOM     26  H           0     135.186 133.785 141.160  0.00  0.00     0.161 HD
ATOM     27  H           0     136.049 132.406 140.740  0.00  0.00     0.161 HD
ATOM     28  O           0     137.417 132.384 142.773  0.00  0.00    -0.239 OA
ENDBRANCH  23  24
ENDBRANCH  22  23
ENDBRANCH   6  22
BRANCH  18  29
ATOM     29  O           0     138.250 129.879 146.610  0.00  0.00    -0.362 OA
ATOM     30  H           0     139.163 129.567 146.539  0.00  0.00     0.213 HD
ENDBRANCH  18  29
BRANCH  18  31
ATOM     31  O           0     138.492 131.707 145.155  0.00  0.00    -0.362 OA
ATOM     32  H           0     137.906 131.160 144.613  0.00  0.00     0.213 HD
ENDBRANCH  18  31
TORSDOF 5
ENDMDL
MODEL 8
REMARK VINA RESULT:      -6.4      2.758      3.980
REMARK  5 active torsions:
REMARK  status: ('A' for Active; 'I' for Inactive)
REMARK    1  A    between atoms: C_6  and  C_7 
REMARK    2  A    between atoms: C_7  and  O_8 
REMARK    3  A    between atoms: O_8  and  C_9 
REMARK       I    between atoms: C_9  and  N_10 
REMARK    4  A    between atoms: C_23  and  O_24 
REMARK    5  A    between atoms: C_23  and  O_25 
ROOT
ATOM      1  N           0     136.298 134.835 148.044  0.00  0.00    -0.235 N 
ATOM      2  H           0     135.513 135.398 147.952  0.00  0.00     0.174 HD
ATOM      3  H           0     136.944 135.016 148.745  0.00  0.00     0.174 HD
ATOM      4  C           0     136.483 133.834 147.230  0.00  0.00     0.672 C 
ATOM      5  N           0     135.588 133.533 146.218  0.00  0.00    -0.218 N 
ATOM      6  C           0     136.097 132.875 145.018  0.00  0.00     0.151 C 
ATOM      7  C           0     136.924 131.644 145.333  0.00  0.00     0.180 C 
ATOM      8  N           0     136.021 130.529 145.688  0.00  0.00    -0.216 N 
ATOM      9  C           0     136.601 129.841 146.725  0.00  0.00     0.670 C 
ATOM     10  N           0     136.291 128.619 147.057  0.00  0.00    -0.235 N 
ATOM     11  H           0     135.611 128.139 146.558  0.00  0.00     0.174 HD
ATOM     12  H           0     136.740 128.190 147.802  0.00  0.00     0.174 HD
ATOM     13  C           0     137.819 131.792 146.552  0.00  0.00     0.217 C 
ATOM     14  N           0     137.547 130.598 147.370  0.00  0.00    -0.191 N 
ATOM     15  N           0     137.578 133.016 147.317  0.00  0.00    -0.183 N 
ATOM     16  C           0     138.784 133.202 148.145  0.00  0.00     0.150 C 
ATOM     17  C           0     139.952 132.772 147.225  0.00  0.00     0.093 C 
ATOM     18  C           0     139.309 131.835 146.171  0.00  0.00     0.209 C 
ATOM     19  H           0     134.647 133.752 146.305  0.00  0.00     0.178 HD
ATOM     20  H           0     135.173 130.321 145.265  0.00  0.00     0.178 HD
ATOM     21  H           0     137.967 130.382 148.217  0.00  0.00     0.180 HD
ENDROOT
BRANCH   6  22
ATOM     22  C           0     136.965 133.868 144.242  0.00  0.00     0.208 C 
BRANCH  22  23
ATOM     23  O           0     136.291 134.244 143.014  0.00  0.00    -0.302 OA
BRANCH  23  24
ATOM     24  C           0     135.202 135.035 143.058  0.00  0.00     0.358 C 
ATOM     25  N           0     135.327 136.338 143.378  0.00  0.00    -0.346 N 
ATOM     26  H           0     136.202 136.707 143.578  0.00  0.00     0.161 HD
ATOM     27  H           0     134.542 136.907 143.411  0.00  0.00     0.161 HD
ATOM     28  O           0     134.106 134.573 142.808  0.00  0.00    -0.239 OA
ENDBRANCH  23  24
ENDBRANCH  22  23
ENDBRANCH   6  22
BRANCH  18  29
ATOM     29  O           0     139.886 130.530 146.247  0.00  0.00    -0.362 OA
ATOM     30  H           0     139.163 129.898 146.133  0.00  0.00     0.213 HD
ENDBRANCH  18  29
BRANCH  18  31
ATOM     31  O           0     139.470 132.377 144.858  0.00  0.00    -0.362 OA
ATOM     32  H           0     138.641 132.823 144.636  0.00  0.00     0.213 HD
ENDBRANCH  18  31
TORSDOF 5
ENDMDL
MODEL 9
REMARK VINA RESULT:      -6.4      2.041      2.833
REMARK  5 active torsions:
REMARK  status: ('A' for Active; 'I' for Inactive)
REMARK    1  A    between atoms: C_6  and  C_7 
REMARK    2  A    between atoms: C_7  and  O_8 
REMARK    3  A    between atoms: O_8  and  C_9 
REMARK       I    between atoms: C_9  and  N_10 
REMARK    4  A    between atoms: C_23  and  O_24 
REMARK    5  A    between atoms: C_23  and  O_25 
ROOT
ATOM      1  N           0     138.055 134.091 142.080  0.00  0.00    -0.235 N 
ATOM      2  H           0     138.240 134.897 141.573  0.00  0.00     0.174 HD
ATOM      3  H           0     138.515 133.265 141.863  0.00  0.00     0.174 HD
ATOM      4  C           0     137.191 134.118 143.056  0.00  0.00     0.672 C 
ATOM      5  N           0     136.512 135.272 143.408  0.00  0.00    -0.218 N 
ATOM      6  C           0     135.190 135.140 144.013  0.00  0.00     0.151 C 
ATOM      7  C           0     135.179 134.181 145.188  0.00  0.00     0.180 C 
ATOM      8  N           0     135.769 134.849 146.367  0.00  0.00    -0.216 N 
ATOM      9  C           0     136.540 133.923 147.026  0.00  0.00     0.670 C 
ATOM     10  N           0     136.913 134.032 148.270  0.00  0.00    -0.235 N 
ATOM     11  H           0     136.644 134.805 148.790  0.00  0.00     0.174 HD
ATOM     12  H           0     137.458 133.340 148.675  0.00  0.00     0.174 HD
ATOM     13  C           0     136.049 132.950 144.992  0.00  0.00     0.217 C 
ATOM     14  N           0     136.870 132.868 146.212  0.00  0.00    -0.191 N 
ATOM     15  N           0     136.892 133.005 143.798  0.00  0.00    -0.183 N 
ATOM     16  C           0     137.293 131.610 143.538  0.00  0.00     0.150 C 
ATOM     17  C           0     136.031 130.780 143.874  0.00  0.00     0.093 C 
ATOM     18  C           0     135.209 131.670 144.841  0.00  0.00     0.209 C 
ATOM     19  H           0     136.905 136.146 143.256  0.00  0.00     0.178 HD
ATOM     20  H           0     135.636 135.774 146.629  0.00  0.00     0.178 HD
ATOM     21  H           0     137.528 132.184 146.409  0.00  0.00     0.180 HD
ENDROOT
BRANCH   6  22
ATOM     22  C           0     134.210 134.634 142.954  0.00  0.00     0.208 C 
BRANCH  22  23
ATOM     23  O           0     133.980 135.675 141.969  0.00  0.00    -0.302 OA
BRANCH  23  24
ATOM     24  C           0     133.480 135.359 140.759  0.00  0.00     0.358 C 
ATOM     25  N           0     133.574 136.238 139.741  0.00  0.00    -0.346 N 
ATOM     26  H           0     134.002 137.098 139.881  0.00  0.00     0.161 HD
ATOM     27  H           0     133.214 136.011 138.870  0.00  0.00     0.161 HD
ATOM     28  O           0     132.946 134.282 140.585  0.00  0.00    -0.239 OA
ENDBRANCH  23  24
ENDBRANCH  22  23
ENDBRANCH   6  22
BRANCH  18  29
ATOM     29  O           0     135.051 131.019 146.103  0.00  0.00    -0.362 OA
ATOM     30  H           0     135.702 131.411 146.702  0.00  0.00     0.213 HD
ENDBRANCH  18  29
BRANCH  18  31
ATOM     31  O           0     133.934 131.977 144.274  0.00  0.00    -0.362 OA
ATOM     32  H           0     133.713 132.876 144.554  0.00  0.00     0.213 HD
ENDBRANCH  18  31
TORSDOF 5
ENDMDL
