# created with PyMOL 2.3.4
@<TRIPOS>MOLECULE
ligand_out_0001
37 39 1                 
SMALL
USER_CHARGES
@<TRIPOS>ATOM
1	   N	138.864	130.376	146.018	N.3	1	UNK0	-0.235	
2	   N	136.575	130.645	145.545	N.3	1	UNK0	-0.218	
3	   N	135.231	132.285	143.308	N.3	1	UNK0	-0.216	
4	   N	135.848	132.932	141.119	N.3	1	UNK0	-0.235	
5	   N	137.265	133.245	142.987	N.3	1	UNK0	-0.191	
6	   N	138.071	132.376	145.096	N.3	1	UNK0	-0.180	
7	   N	133.342	131.666	148.910	N.pl3	1	UNK0	-0.346	
8	   C	137.880	131.105	145.568	C.3	1	UNK0	0.672	
9	   C	135.495	131.623	145.644	C.3	1	UNK0	0.151	
10	   C	135.641	132.757	144.648	C.3	1	UNK0	0.180	
11	   C	136.099	132.827	142.394	C.3	1	UNK0	0.670	
12	   C	137.073	133.227	144.447	C.3	1	UNK0	0.220	
13	   C	139.290	133.200	145.180	C.3	1	UNK0	0.183	
14	   C	138.772	134.620	145.511	C.2	1	UNK0	0.230	
15	   C	137.301	134.636	145.022	C.3	1	UNK0	0.238	
16	   C	135.487	132.208	147.058	C.2	1	UNK0	0.208	
17	   C	134.249	130.740	148.538	C.2	1	UNK0	0.358	
18	   O	135.434	131.127	148.027	O.2	1	UNK0	-0.302	
19	   O	133.998	129.559	148.662	O.co2	1	UNK0	-0.239	
20	   O	137.125	135.628	144.008	O.2	1	UNK0	-0.360	
21	   O	136.415	134.876	146.115	O.2	1	UNK0	-0.360	
22	   O	138.833	134.855	146.919	O.2	1	UNK0	-0.244	
23	   O	140.887	135.843	147.618	O.3	1	UNK0	-0.572	
24	   O	139.615	136.812	145.805	O.3	1	UNK0	-0.572	
25	   O	138.782	136.941	148.070	O.3	1	UNK0	-0.572	
26	   S	139.564	136.176	147.113	S.3	1	UNK0	0.252	
27	   H	138.692	129.481	146.349	 H	1	UNK0	0.174	
28	   H	139.767	130.729	146.017	 H	1	UNK0	0.174	
29	   H	135.003	132.616	140.763	 H	1	UNK0	0.174	
30	   H	136.507	133.327	140.526	 H	1	UNK0	0.174	
31	   H	136.382	129.698	145.463	 H	1	UNK0	0.178	
32	   H	134.485	131.697	143.112	 H	1	UNK0	0.178	
33	   H	138.075	133.510	142.524	 H	1	UNK0	0.180	
34	   H	133.543	132.608	148.810	 H	1	UNK0	0.161	
35	   H	132.489	131.387	149.278	 H	1	UNK0	0.161	
36	   H	137.272	136.486	144.428	 H	1	UNK0	0.213	
37	   H	136.339	134.044	146.603	 H	1	UNK0	0.213	
@<TRIPOS>BOND
1 1 8 1
2 1 27 1
3 1 28 1
4 2 9 1
5 2 31 1
6 3 11 1
7 3 32 1
8 4 29 1
9 4 30 1
10 5 33 1
11 6 13 1
12 7 34 1
13 7 35 1
14 2 8 1
15 6 8 1
16 9 10 1
17 9 16 1
18 3 10 1
19 10 12 1
20 4 11 1
21 5 11 1
22 5 12 1
23 6 12 1
24 12 15 1
25 13 14 1
26 14 15 1
27 14 22 2
28 15 20 2
29 15 21 2
30 16 18 2
31 7 17 1
32 17 19 2
33 17 18 2
34 20 36 1
35 21 37 1
36 22 26 1
37 23 26 1
38 24 26 1
39 25 26 1
@<TRIPOS>SUBSTRUCTURE
1	UNK0	1	GROUP	1 ****	UNK
