MODEL 1
REMARK VINA RESULT:      -7.8      0.000      0.000
REMARK  7 active torsions:
REMARK  status: ('A' for Active; 'I' for Inactive)
REMARK    1  A    between atoms: C_6  and  C_7 
REMARK    2  A    between atoms: C_7  and  O_8 
REMARK    3  A    between atoms: O_8  and  C_9 
REMARK       I    between atoms: C_9  and  N_10 
REMARK    4  A    between atoms: C_22  and  O_23 
REMARK    5  A    between atoms: O_23  and  S_24 
REMARK    6  A    between atoms: C_28  and  O_29 
REMARK    7  A    between atoms: C_28  and  O_30 
ROOT
ATOM      1  N           0     138.864 130.376 146.018  0.00  0.00    -0.235 N 
ATOM      2  H           0     138.692 129.481 146.349  0.00  0.00     0.174 HD
ATOM      3  H           0     139.767 130.729 146.017  0.00  0.00     0.174 HD
ATOM      4  C           0     137.880 131.105 145.568  0.00  0.00     0.672 C 
ATOM      5  N           0     136.575 130.645 145.545  0.00  0.00    -0.218 N 
ATOM      6  C           0     135.495 131.623 145.644  0.00  0.00     0.151 C 
ATOM      7  C           0     135.641 132.757 144.648  0.00  0.00     0.180 C 
ATOM      8  N           0     135.231 132.285 143.308  0.00  0.00    -0.216 N 
ATOM      9  C           0     136.099 132.827 142.394  0.00  0.00     0.670 C 
ATOM     10  N           0     135.848 132.932 141.119  0.00  0.00    -0.235 N 
ATOM     11  H           0     135.003 132.616 140.763  0.00  0.00     0.174 HD
ATOM     12  H           0     136.507 133.327 140.526  0.00  0.00     0.174 HD
ATOM     13  C           0     137.073 133.227 144.447  0.00  0.00     0.220 C 
ATOM     14  N           0     137.265 133.245 142.987  0.00  0.00    -0.191 N 
ATOM     15  N           0     138.071 132.376 145.096  0.00  0.00    -0.180 N 
ATOM     16  C           0     139.290 133.200 145.180  0.00  0.00     0.183 C 
ATOM     17  C           0     138.772 134.620 145.511  0.00  0.00     0.230 C 
ATOM     18  C           0     137.301 134.636 145.022  0.00  0.00     0.238 C 
ATOM     19  H           0     136.382 129.698 145.463  0.00  0.00     0.178 HD
ATOM     20  H           0     134.485 131.697 143.112  0.00  0.00     0.178 HD
ATOM     21  H           0     138.075 133.510 142.524  0.00  0.00     0.180 HD
ENDROOT
BRANCH   6  22
ATOM     22  C           0     135.487 132.208 147.058  0.00  0.00     0.208 C 
BRANCH  22  23
ATOM     23  O           0     135.434 131.127 148.027  0.00  0.00    -0.302 OA
BRANCH  23  24
ATOM     24  C           0     134.249 130.740 148.538  0.00  0.00     0.358 C 
ATOM     25  N           0     133.342 131.666 148.910  0.00  0.00    -0.346 N 
ATOM     26  H           0     133.543 132.608 148.810  0.00  0.00     0.161 HD
ATOM     27  H           0     132.489 131.387 149.278  0.00  0.00     0.161 HD
ATOM     28  O           0     133.998 129.559 148.662  0.00  0.00    -0.239 OA
ENDBRANCH  23  24
ENDBRANCH  22  23
ENDBRANCH   6  22
BRANCH  18  29
ATOM     29  O           0     137.125 135.628 144.008  0.00  0.00    -0.360 OA
ATOM     30  H           0     137.272 136.486 144.428  0.00  0.00     0.213 HD
ENDBRANCH  18  29
BRANCH  18  31
ATOM     31  O           0     136.415 134.876 146.115  0.00  0.00    -0.360 OA
ATOM     32  H           0     136.339 134.044 146.603  0.00  0.00     0.213 HD
ENDBRANCH  18  31
BRANCH  17  33
ATOM     33  O           0     138.833 134.855 146.919  0.00  0.00    -0.244 OA
BRANCH  33  34
ATOM     34  S           0     139.564 136.176 147.113  0.00  0.00     0.252 S 
ATOM     35  O           0     140.887 135.843 147.618  0.00  0.00    -0.572 OA
ATOM     36  O           0     139.615 136.812 145.805  0.00  0.00    -0.572 OA
ATOM     37  O           0     138.782 136.941 148.070  0.00  0.00    -0.572 OA
ENDBRANCH  33  34
ENDBRANCH  17  33
TORSDOF 7
ENDMDL
MODEL 2
REMARK VINA RESULT:      -7.5      2.730      5.326
REMARK  7 active torsions:
REMARK  status: ('A' for Active; 'I' for Inactive)
REMARK    1  A    between atoms: C_6  and  C_7 
REMARK    2  A    between atoms: C_7  and  O_8 
REMARK    3  A    between atoms: O_8  and  C_9 
REMARK       I    between atoms: C_9  and  N_10 
REMARK    4  A    between atoms: C_22  and  O_23 
REMARK    5  A    between atoms: O_23  and  S_24 
REMARK    6  A    between atoms: C_28  and  O_29 
REMARK    7  A    between atoms: C_28  and  O_30 
ROOT
ATOM      1  N           0     136.106 134.739 147.261  0.00  0.00    -0.235 N 
ATOM      2  H           0     136.528 135.573 147.519  0.00  0.00     0.174 HD
ATOM      3  H           0     135.599 134.230 147.912  0.00  0.00     0.174 HD
ATOM      4  C           0     136.215 134.305 146.036  0.00  0.00     0.672 C 
ATOM      5  N           0     136.923 134.998 145.069  0.00  0.00    -0.218 N 
ATOM      6  C           0     137.530 134.239 143.980  0.00  0.00     0.151 C 
ATOM      7  C           0     136.549 133.303 143.302  0.00  0.00     0.180 C 
ATOM      8  N           0     135.670 134.085 142.406  0.00  0.00    -0.216 N 
ATOM      9  C           0     134.402 133.568 142.516  0.00  0.00     0.670 C 
ATOM     10  N           0     133.458 133.751 141.635  0.00  0.00    -0.235 N 
ATOM     11  H           0     133.632 134.281 140.842  0.00  0.00     0.174 HD
ATOM     12  H           0     132.583 133.357 141.774  0.00  0.00     0.174 HD
ATOM     13  C           0     135.583 132.618 144.255  0.00  0.00     0.220 C 
ATOM     14  N           0     134.251 132.836 143.667  0.00  0.00    -0.191 N 
ATOM     15  N           0     135.641 133.131 145.625  0.00  0.00    -0.180 N 
ATOM     16  C           0     135.009 132.091 146.457  0.00  0.00     0.183 C 
ATOM     17  C           0     135.486 130.758 145.833  0.00  0.00     0.230 C 
ATOM     18  C           0     135.863 131.110 144.371  0.00  0.00     0.238 C 
ATOM     19  H           0     137.012 135.963 145.114  0.00  0.00     0.178 HD
ATOM     20  H           0     135.939 134.828 141.845  0.00  0.00     0.178 HD
ATOM     21  H           0     133.411 132.514 144.030  0.00  0.00     0.180 HD
ENDROOT
BRANCH   6  22
ATOM     22  C           0     138.691 133.414 144.540  0.00  0.00     0.208 C 
BRANCH  22  23
ATOM     23  O           0     139.314 134.138 145.634  0.00  0.00    -0.302 OA
BRANCH  23  24
ATOM     24  C           0     139.677 133.482 146.753  0.00  0.00     0.358 C 
ATOM     25  N           0     139.050 132.339 147.096  0.00  0.00    -0.346 N 
ATOM     26  H           0     138.339 131.990 146.538  0.00  0.00     0.161 HD
ATOM     27  H           0     139.311 131.867 147.902  0.00  0.00     0.161 HD
ATOM     28  O           0     140.568 133.920 147.452  0.00  0.00    -0.239 OA
ENDBRANCH  23  24
ENDBRANCH  22  23
ENDBRANCH   6  22
BRANCH  18  29
ATOM     29  O           0     135.048 130.375 143.456  0.00  0.00    -0.360 OA
ATOM     30  H           0     135.126 130.812 142.597  0.00  0.00     0.213 HD
ENDBRANCH  18  29
BRANCH  18  31
ATOM     31  O           0     137.246 130.841 144.136  0.00  0.00    -0.360 OA
ATOM     32  H           0     137.586 131.570 143.598  0.00  0.00     0.213 HD
ENDBRANCH  18  31
BRANCH  17  33
ATOM     33  O           0     136.624 130.258 146.537  0.00  0.00    -0.244 OA
BRANCH  33  34
ATOM     34  S           0     136.145 129.070 147.360  0.00  0.00     0.252 S 
ATOM     35  O           0     137.339 128.353 147.780  0.00  0.00    -0.572 OA
ATOM     36  O           0     135.407 129.622 148.487  0.00  0.00    -0.572 OA
ATOM     37  O           0     135.301 128.276 146.482  0.00  0.00    -0.572 OA
ENDBRANCH  33  34
ENDBRANCH  17  33
TORSDOF 7
ENDMDL
MODEL 3
REMARK VINA RESULT:      -7.3      2.628      5.406
REMARK  7 active torsions:
REMARK  status: ('A' for Active; 'I' for Inactive)
REMARK    1  A    between atoms: C_6  and  C_7 
REMARK    2  A    between atoms: C_7  and  O_8 
REMARK    3  A    between atoms: O_8  and  C_9 
REMARK       I    between atoms: C_9  and  N_10 
REMARK    4  A    between atoms: C_22  and  O_23 
REMARK    5  A    between atoms: O_23  and  S_24 
REMARK    6  A    between atoms: C_28  and  O_29 
REMARK    7  A    between atoms: C_28  and  O_30 
ROOT
ATOM      1  N           0     135.264 130.451 143.286  0.00  0.00    -0.235 N 
ATOM      2  H           0     134.942 130.464 142.371  0.00  0.00     0.174 HD
ATOM      3  H           0     135.066 129.694 143.859  0.00  0.00     0.174 HD
ATOM      4  C           0     135.969 131.448 143.743  0.00  0.00     0.672 C 
ATOM      5  N           0     136.282 132.548 142.963  0.00  0.00    -0.218 N 
ATOM      6  C           0     136.489 133.831 143.628  0.00  0.00     0.151 C 
ATOM      7  C           0     137.473 133.741 144.778  0.00  0.00     0.180 C 
ATOM      8  N           0     138.848 133.680 144.239  0.00  0.00    -0.216 N 
ATOM      9  C           0     139.553 132.783 145.002  0.00  0.00     0.670 C 
ATOM     10  N           0     140.855 132.735 145.060  0.00  0.00    -0.235 N 
ATOM     11  H           0     141.387 133.360 144.543  0.00  0.00     0.174 HD
ATOM     12  H           0     141.292 132.075 145.621  0.00  0.00     0.174 HD
ATOM     13  C           0     137.349 132.471 145.605  0.00  0.00     0.220 C 
ATOM     14  N           0     138.720 131.942 145.696  0.00  0.00    -0.191 N 
ATOM     15  N           0     136.441 131.477 145.029  0.00  0.00    -0.180 N 
ATOM     16  C           0     136.107 130.566 146.138  0.00  0.00     0.183 C 
ATOM     17  C           0     135.976 131.492 147.370  0.00  0.00     0.230 C 
ATOM     18  C           0     136.802 132.754 147.015  0.00  0.00     0.238 C 
ATOM     19  H           0     136.363 132.468 142.000  0.00  0.00     0.178 HD
ATOM     20  H           0     139.190 134.182 143.482  0.00  0.00     0.178 HD
ATOM     21  H           0     138.988 131.139 146.168  0.00  0.00     0.180 HD
ENDROOT
BRANCH   6  22
ATOM     22  C           0     135.146 134.330 144.167  0.00  0.00     0.208 C 
BRANCH  22  23
ATOM     23  O           0     135.005 135.745 143.875  0.00  0.00    -0.302 OA
BRANCH  23  24
ATOM     24  C           0     134.391 136.140 142.743  0.00  0.00     0.358 C 
ATOM     25  N           0     134.442 137.433 142.365  0.00  0.00    -0.346 N 
ATOM     26  H           0     134.920 138.078 142.907  0.00  0.00     0.161 HD
ATOM     27  H           0     134.001 137.717 141.550  0.00  0.00     0.161 HD
ATOM     28  O           0     133.792 135.331 142.063  0.00  0.00    -0.239 OA
ENDBRANCH  23  24
ENDBRANCH  22  23
ENDBRANCH   6  22
BRANCH  18  29
ATOM     29  O           0     137.874 132.925 147.945  0.00  0.00    -0.360 OA
ATOM     30  H           0     137.518 132.728 148.822  0.00  0.00     0.213 HD
ENDBRANCH  18  29
BRANCH  18  31
ATOM     31  O           0     135.964 133.911 147.000  0.00  0.00    -0.360 OA
ATOM     32  H           0     135.062 133.601 146.836  0.00  0.00     0.213 HD
ENDBRANCH  18  31
BRANCH  17  33
ATOM     33  O           0     134.607 131.836 147.589  0.00  0.00    -0.244 OA
BRANCH  33  34
ATOM     34  S           0     134.339 131.648 149.076  0.00  0.00     0.252 S 
ATOM     35  O           0     132.913 131.863 149.267  0.00  0.00    -0.572 OA
ATOM     36  O           0     134.740 130.286 149.396  0.00  0.00    -0.572 OA
ATOM     37  O           0     135.146 132.640 149.768  0.00  0.00    -0.572 OA
ENDBRANCH  33  34
ENDBRANCH  17  33
TORSDOF 7
ENDMDL
MODEL 4
REMARK VINA RESULT:      -7.3      2.706      5.573
REMARK  7 active torsions:
REMARK  status: ('A' for Active; 'I' for Inactive)
REMARK    1  A    between atoms: C_6  and  C_7 
REMARK    2  A    between atoms: C_7  and  O_8 
REMARK    3  A    between atoms: O_8  and  C_9 
REMARK       I    between atoms: C_9  and  N_10 
REMARK    4  A    between atoms: C_22  and  O_23 
REMARK    5  A    between atoms: O_23  and  S_24 
REMARK    6  A    between atoms: C_28  and  O_29 
REMARK    7  A    between atoms: C_28  and  O_30 
ROOT
ATOM      1  N           0     135.967 134.780 147.618  0.00  0.00    -0.235 N 
ATOM      2  H           0     136.357 135.666 147.560  0.00  0.00     0.174 HD
ATOM      3  H           0     135.392 134.551 148.364  0.00  0.00     0.174 HD
ATOM      4  C           0     136.211 133.898 146.689  0.00  0.00     0.672 C 
ATOM      5  N           0     137.021 134.179 145.602  0.00  0.00    -0.218 N 
ATOM      6  C           0     137.746 133.076 144.977  0.00  0.00     0.151 C 
ATOM      7  C           0     136.847 131.904 144.637  0.00  0.00     0.180 C 
ATOM      8  N           0     136.071 132.222 143.419  0.00  0.00    -0.216 N 
ATOM      9  C           0     134.800 131.736 143.599  0.00  0.00     0.670 C 
ATOM     10  N           0     133.959 131.509 142.628  0.00  0.00    -0.235 N 
ATOM     11  H           0     134.219 131.685 141.711  0.00  0.00     0.174 HD
ATOM     12  H           0     133.074 131.163 142.825  0.00  0.00     0.174 HD
ATOM     13  C           0     135.782 131.614 145.683  0.00  0.00     0.220 C 
ATOM     14  N           0     134.523 131.518 144.926  0.00  0.00    -0.191 N 
ATOM     15  N           0     135.688 132.633 146.729  0.00  0.00    -0.180 N 
ATOM     16  C           0     134.969 131.985 147.841  0.00  0.00     0.183 C 
ATOM     17  C           0     135.512 130.537 147.857  0.00  0.00     0.230 C 
ATOM     18  C           0     136.049 130.292 146.423  0.00  0.00     0.238 C 
ATOM     19  H           0     137.104 135.084 145.264  0.00  0.00     0.178 HD
ATOM     20  H           0     136.400 132.691 142.637  0.00  0.00     0.178 HD
ATOM     21  H           0     133.649 131.331 145.300  0.00  0.00     0.180 HD
ENDROOT
BRANCH   6  22
ATOM     22  C           0     138.839 132.597 145.936  0.00  0.00     0.208 C 
BRANCH  22  23
ATOM     23  O           0     139.736 133.699 146.235  0.00  0.00    -0.302 OA
BRANCH  23  24
ATOM     24  C           0     139.824 134.172 147.493  0.00  0.00     0.358 C 
ATOM     25  N           0     140.653 133.581 148.377  0.00  0.00    -0.346 N 
ATOM     26  H           0     141.185 132.817 148.108  0.00  0.00     0.161 HD
ATOM     27  H           0     140.717 133.922 149.283  0.00  0.00     0.161 HD
ATOM     28  O           0     139.158 135.130 147.830  0.00  0.00    -0.239 OA
ENDBRANCH  23  24
ENDBRANCH  22  23
ENDBRANCH   6  22
BRANCH  18  29
ATOM     29  O           0     135.341 129.216 145.804  0.00  0.00    -0.360 OA
ATOM     30  H           0     135.618 128.404 146.250  0.00  0.00     0.213 HD
ENDBRANCH  18  29
BRANCH  18  31
ATOM     31  O           0     137.450 130.015 146.457  0.00  0.00    -0.360 OA
ATOM     32  H           0     137.906 130.865 146.394  0.00  0.00     0.213 HD
ENDBRANCH  18  31
BRANCH  17  33
ATOM     33  O           0     136.566 130.412 148.813  0.00  0.00    -0.244 OA
BRANCH  33  34
ATOM     34  S           0     136.411 129.043 149.462  0.00  0.00     0.252 S 
ATOM     35  O           0     136.439 129.264 150.900  0.00  0.00    -0.572 OA
ATOM     36  O           0     135.132 128.516 149.008  0.00  0.00    -0.572 OA
ATOM     37  O           0     137.534 128.241 149.003  0.00  0.00    -0.572 OA
ENDBRANCH  33  34
ENDBRANCH  17  33
TORSDOF 7
ENDMDL
MODEL 5
REMARK VINA RESULT:      -7.2      3.242      4.895
REMARK  7 active torsions:
REMARK  status: ('A' for Active; 'I' for Inactive)
REMARK    1  A    between atoms: C_6  and  C_7 
REMARK    2  A    between atoms: C_7  and  O_8 
REMARK    3  A    between atoms: O_8  and  C_9 
REMARK       I    between atoms: C_9  and  N_10 
REMARK    4  A    between atoms: C_22  and  O_23 
REMARK    5  A    between atoms: O_23  and  S_24 
REMARK    6  A    between atoms: C_28  and  O_29 
REMARK    7  A    between atoms: C_28  and  O_30 
ROOT
ATOM      1  N           0     135.428 132.831 148.261  0.00  0.00    -0.235 N 
ATOM      2  H           0     135.422 132.408 149.133  0.00  0.00     0.174 HD
ATOM      3  H           0     134.600 133.149 147.870  0.00  0.00     0.174 HD
ATOM      4  C           0     136.552 132.979 147.616  0.00  0.00     0.672 C 
ATOM      5  N           0     137.760 132.547 148.134  0.00  0.00    -0.218 N 
ATOM      6  C           0     138.815 132.161 147.201  0.00  0.00     0.151 C 
ATOM      7  C           0     139.076 133.217 146.145  0.00  0.00     0.180 C 
ATOM      8  N           0     139.862 134.318 146.740  0.00  0.00    -0.216 N 
ATOM      9  C           0     139.374 135.497 146.234  0.00  0.00     0.670 C 
ATOM     10  N           0     140.029 136.625 146.243  0.00  0.00    -0.235 N 
ATOM     11  H           0     140.919 136.665 146.624  0.00  0.00     0.174 HD
ATOM     12  H           0     139.625 137.423 145.868  0.00  0.00     0.174 HD
ATOM     13  C           0     137.821 133.903 145.628  0.00  0.00     0.220 C 
ATOM     14  N           0     138.111 135.343 145.718  0.00  0.00    -0.191 N 
ATOM     15  N           0     136.611 133.564 146.379  0.00  0.00    -0.180 N 
ATOM     16  C           0     135.489 133.933 145.496  0.00  0.00     0.183 C 
ATOM     17  C           0     135.969 133.538 144.080  0.00  0.00     0.230 C 
ATOM     18  C           0     137.516 133.521 144.169  0.00  0.00     0.238 C 
ATOM     19  H           0     137.904 132.503 149.092  0.00  0.00     0.178 HD
ATOM     20  H           0     140.590 134.225 147.375  0.00  0.00     0.178 HD
ATOM     21  H           0     137.513 136.060 145.455  0.00  0.00     0.180 HD
ENDROOT
BRANCH   6  22
ATOM     22  C           0     138.407 130.860 146.506  0.00  0.00     0.208 C 
BRANCH  22  23
ATOM     23  O           0     137.649 130.036 147.430  0.00  0.00    -0.302 OA
BRANCH  23  24
ATOM     24  C           0     136.483 129.488 147.040  0.00  0.00     0.358 C 
ATOM     25  N           0     135.879 129.920 145.915  0.00  0.00    -0.346 N 
ATOM     26  H           0     136.284 130.625 145.387  0.00  0.00     0.161 HD
ATOM     27  H           0     135.039 129.525 145.634  0.00  0.00     0.161 HD
ATOM     28  O           0     135.975 128.604 147.701  0.00  0.00    -0.239 OA
ENDBRANCH  23  24
ENDBRANCH  22  23
ENDBRANCH   6  22
BRANCH  18  29
ATOM     29  O           0     138.077 134.481 143.270  0.00  0.00    -0.360 OA
ATOM     30  H           0     137.892 134.166 142.375  0.00  0.00     0.213 HD
ENDBRANCH  18  29
BRANCH  18  31
ATOM     31  O           0     138.017 132.215 143.882  0.00  0.00    -0.360 OA
ATOM     32  H           0     137.280 131.705 143.520  0.00  0.00     0.213 HD
ENDBRANCH  18  31
BRANCH  17  33
ATOM     33  O           0     135.474 132.244 143.730  0.00  0.00    -0.244 OA
BRANCH  33  34
ATOM     34  S           0     134.611 132.424 142.489  0.00  0.00     0.252 S 
ATOM     35  O           0     135.521 132.743 141.399  0.00  0.00    -0.572 OA
ATOM     36  O           0     133.922 131.159 142.281  0.00  0.00    -0.572 OA
ATOM     37  O           0     133.693 133.514 142.781  0.00  0.00    -0.572 OA
ENDBRANCH  33  34
ENDBRANCH  17  33
TORSDOF 7
ENDMDL
MODEL 6
REMARK VINA RESULT:      -7.2      2.737      5.594
REMARK  7 active torsions:
REMARK  status: ('A' for Active; 'I' for Inactive)
REMARK    1  A    between atoms: C_6  and  C_7 
REMARK    2  A    between atoms: C_7  and  O_8 
REMARK    3  A    between atoms: O_8  and  C_9 
REMARK       I    between atoms: C_9  and  N_10 
REMARK    4  A    between atoms: C_22  and  O_23 
REMARK    5  A    between atoms: O_23  and  S_24 
REMARK    6  A    between atoms: C_28  and  O_29 
REMARK    7  A    between atoms: C_28  and  O_30 
ROOT
ATOM      1  N           0     140.194 133.076 144.338  0.00  0.00    -0.235 N 
ATOM      2  H           0     141.069 133.452 144.519  0.00  0.00     0.174 HD
ATOM      3  H           0     139.912 132.922 143.422  0.00  0.00     0.174 HD
ATOM      4  C           0     139.398 132.770 145.324  0.00  0.00     0.672 C 
ATOM      5  N           0     139.756 132.965 146.647  0.00  0.00    -0.218 N 
ATOM      6  C           0     138.697 133.209 147.622  0.00  0.00     0.151 C 
ATOM      7  C           0     137.591 132.176 147.554  0.00  0.00     0.180 C 
ATOM      8  N           0     138.048 130.930 148.207  0.00  0.00    -0.216 N 
ATOM      9  C           0     137.585 129.876 147.458  0.00  0.00     0.670 C 
ATOM     10  N           0     137.478 128.654 147.902  0.00  0.00    -0.235 N 
ATOM     11  H           0     137.733 128.446 148.814  0.00  0.00     0.174 HD
ATOM     12  H           0     137.143 127.955 147.320  0.00  0.00     0.174 HD
ATOM     13  C           0     137.234 131.738 146.142  0.00  0.00     0.220 C 
ATOM     14  N           0     137.250 130.266 146.186  0.00  0.00    -0.191 N 
ATOM     15  N           0     138.151 132.241 145.118  0.00  0.00    -0.180 N 
ATOM     16  C           0     137.422 132.110 143.844  0.00  0.00     0.183 C 
ATOM     17  C           0     135.963 132.484 144.197  0.00  0.00     0.230 C 
ATOM     18  C           0     135.840 132.234 145.722  0.00  0.00     0.238 C 
ATOM     19  H           0     140.687 132.939 146.919  0.00  0.00     0.178 HD
ATOM     20  H           0     138.579 130.869 149.016  0.00  0.00     0.178 HD
ATOM     21  H           0     137.054 129.674 145.443  0.00  0.00     0.180 HD
ENDROOT
BRANCH   6  22
ATOM     22  C           0     138.096 134.592 147.360  0.00  0.00     0.208 C 
BRANCH  22  23
ATOM     23  O           0     139.097 135.611 147.617  0.00  0.00    -0.302 OA
BRANCH  23  24
ATOM     24  C           0     139.620 136.313 146.593  0.00  0.00     0.358 C 
ATOM     25  N           0     140.530 137.278 146.834  0.00  0.00    -0.346 N 
ATOM     26  H           0     140.807 137.468 147.743  0.00  0.00     0.161 HD
ATOM     27  H           0     140.907 137.784 146.097  0.00  0.00     0.161 HD
ATOM     28  O           0     139.273 136.075 145.454  0.00  0.00    -0.239 OA
ENDBRANCH  23  24
ENDBRANCH  22  23
ENDBRANCH   6  22
BRANCH  18  29
ATOM     29  O           0     134.851 131.236 145.984  0.00  0.00    -0.360 OA
ATOM     30  H           0     134.130 131.674 146.457  0.00  0.00     0.213 HD
ENDBRANCH  18  29
BRANCH  18  31
ATOM     31  O           0     135.518 133.448 146.401  0.00  0.00    -0.360 OA
ATOM     32  H           0     136.329 133.750 146.834  0.00  0.00     0.213 HD
ENDBRANCH  18  31
BRANCH  17  33
ATOM     33  O           0     135.715 133.858 143.894  0.00  0.00    -0.244 OA
BRANCH  33  34
ATOM     34  S           0     134.681 133.882 142.777  0.00  0.00     0.252 S 
ATOM     35  O           0     134.271 135.270 142.626  0.00  0.00    -0.572 OA
ATOM     36  O           0     135.348 133.370 141.589  0.00  0.00    -0.572 OA
ATOM     37  O           0     133.588 133.026 143.210  0.00  0.00    -0.572 OA
ENDBRANCH  33  34
ENDBRANCH  17  33
TORSDOF 7
ENDMDL
MODEL 7
REMARK VINA RESULT:      -7.1     11.362     13.811
REMARK  7 active torsions:
REMARK  status: ('A' for Active; 'I' for Inactive)
REMARK    1  A    between atoms: C_6  and  C_7 
REMARK    2  A    between atoms: C_7  and  O_8 
REMARK    3  A    between atoms: O_8  and  C_9 
REMARK       I    between atoms: C_9  and  N_10 
REMARK    4  A    between atoms: C_22  and  O_23 
REMARK    5  A    between atoms: O_23  and  S_24 
REMARK    6  A    between atoms: C_28  and  O_29 
REMARK    7  A    between atoms: C_28  and  O_30 
ROOT
ATOM      1  N           0     128.876 134.273 132.051  0.00  0.00    -0.235 N 
ATOM      2  H           0     128.168 133.867 131.527  0.00  0.00     0.174 HD
ATOM      3  H           0     129.030 135.229 132.001  0.00  0.00     0.174 HD
ATOM      4  C           0     129.616 133.533 132.829  0.00  0.00     0.672 C 
ATOM      5  N           0     129.432 132.166 132.939  0.00  0.00    -0.218 N 
ATOM      6  C           0     130.586 131.338 133.277  0.00  0.00     0.151 C 
ATOM      7  C           0     131.327 131.839 134.501  0.00  0.00     0.180 C 
ATOM      8  N           0     130.571 131.464 135.715  0.00  0.00    -0.216 N 
ATOM      9  C           0     130.641 132.521 136.590  0.00  0.00     0.670 C 
ATOM     10  N           0     130.414 132.428 137.870  0.00  0.00    -0.235 N 
ATOM     11  H           0     130.177 131.572 138.259  0.00  0.00     0.174 HD
ATOM     12  H           0     130.481 133.215 138.433  0.00  0.00     0.174 HD
ATOM     13  C           0     131.430 133.353 134.588  0.00  0.00     0.220 C 
ATOM     14  N           0     130.981 133.687 135.950  0.00  0.00    -0.191 N 
ATOM     15  N           0     130.630 134.059 133.585  0.00  0.00    -0.180 N 
ATOM     16  C           0     131.190 135.421 133.529  0.00  0.00     0.183 C 
ATOM     17  C           0     132.716 135.215 133.673  0.00  0.00     0.230 C 
ATOM     18  C           0     132.873 133.844 134.378  0.00  0.00     0.238 C 
ATOM     19  H           0     128.559 131.768 132.796  0.00  0.00     0.178 HD
ATOM     20  H           0     130.107 130.626 135.866  0.00  0.00     0.178 HD
ATOM     21  H           0     130.936 134.578 136.330  0.00  0.00     0.180 HD
ENDROOT
BRANCH   6  22
ATOM     22  C           0     131.550 131.325 132.089  0.00  0.00     0.208 C 
BRANCH  22  23
ATOM     23  O           0     132.610 130.365 132.336  0.00  0.00    -0.302 OA
BRANCH  23  24
ATOM     24  C           0     132.357 129.045 132.242  0.00  0.00     0.358 C 
ATOM     25  N           0     132.216 128.306 133.360  0.00  0.00    -0.346 N 
ATOM     26  H           0     132.297 128.723 134.231  0.00  0.00     0.161 HD
ATOM     27  H           0     132.034 127.355 133.292  0.00  0.00     0.161 HD
ATOM     28  O           0     132.256 128.523 131.150  0.00  0.00    -0.239 OA
ENDBRANCH  23  24
ENDBRANCH  22  23
ENDBRANCH   6  22
BRANCH  18  29
ATOM     29  O           0     133.538 134.003 135.633  0.00  0.00    -0.360 OA
ATOM     30  H           0     134.021 134.840 135.590  0.00  0.00     0.213 HD
ENDBRANCH  18  29
BRANCH  18  31
ATOM     31  O           0     133.591 132.934 133.544  0.00  0.00    -0.360 OA
ATOM     32  H           0     134.525 133.177 133.603  0.00  0.00     0.213 HD
ENDBRANCH  18  31
BRANCH  17  33
ATOM     33  O           0     133.338 135.190 132.387  0.00  0.00    -0.244 OA
BRANCH  33  34
ATOM     34  S           0     134.550 136.109 132.467  0.00  0.00     0.252 S 
ATOM     35  O           0     135.139 135.899 133.780  0.00  0.00    -0.572 OA
ATOM     36  O           0     135.441 135.706 131.389  0.00  0.00    -0.572 OA
ATOM     37  O           0     134.050 137.464 132.294  0.00  0.00    -0.572 OA
ENDBRANCH  33  34
ENDBRANCH  17  33
TORSDOF 7
ENDMDL
MODEL 8
REMARK VINA RESULT:      -7.0     10.826     13.588
REMARK  7 active torsions:
REMARK  status: ('A' for Active; 'I' for Inactive)
REMARK    1  A    between atoms: C_6  and  C_7 
REMARK    2  A    between atoms: C_7  and  O_8 
REMARK    3  A    between atoms: O_8  and  C_9 
REMARK       I    between atoms: C_9  and  N_10 
REMARK    4  A    between atoms: C_22  and  O_23 
REMARK    5  A    between atoms: O_23  and  S_24 
REMARK    6  A    between atoms: C_28  and  O_29 
REMARK    7  A    between atoms: C_28  and  O_30 
ROOT
ATOM      1  N           0     131.251 133.411 136.990  0.00  0.00    -0.235 N 
ATOM      2  H           0     131.197 134.053 137.715  0.00  0.00     0.174 HD
ATOM      3  H           0     131.392 132.471 137.183  0.00  0.00     0.174 HD
ATOM      4  C           0     131.126 133.811 135.755  0.00  0.00     0.672 C 
ATOM      5  N           0     130.917 135.140 135.429  0.00  0.00    -0.218 N 
ATOM      6  C           0     131.395 135.618 134.134  0.00  0.00     0.151 C 
ATOM      7  C           0     130.934 134.746 132.984  0.00  0.00     0.180 C 
ATOM      8  N           0     129.516 135.040 132.686  0.00  0.00    -0.216 N 
ATOM      9  C           0     128.896 133.848 132.402  0.00  0.00     0.670 C 
ATOM     10  N           0     127.767 133.746 131.757  0.00  0.00    -0.235 N 
ATOM     11  H           0     127.313 134.544 131.446  0.00  0.00     0.174 HD
ATOM     12  H           0     127.382 132.871 131.589  0.00  0.00     0.174 HD
ATOM     13  C           0     130.941 133.256 133.290  0.00  0.00     0.220 C 
ATOM     14  N           0     129.610 132.778 132.881  0.00  0.00    -0.191 N 
ATOM     15  N           0     131.200 132.944 134.697  0.00  0.00    -0.180 N 
ATOM     16  C           0     131.609 131.528 134.712  0.00  0.00     0.183 C 
ATOM     17  C           0     132.477 131.365 133.443  0.00  0.00     0.230 C 
ATOM     18  C           0     132.030 132.511 132.500  0.00  0.00     0.238 C 
ATOM     19  H           0     130.464 135.738 136.044  0.00  0.00     0.178 HD
ATOM     20  H           0     129.099 135.916 132.693  0.00  0.00     0.178 HD
ATOM     21  H           0     129.293 131.863 132.938  0.00  0.00     0.180 HD
ENDROOT
BRANCH   6  22
ATOM     22  C           0     132.925 135.643 134.151  0.00  0.00     0.208 C 
BRANCH  22  23
ATOM     23  O           0     133.387 136.012 135.477  0.00  0.00    -0.302 OA
BRANCH  23  24
ATOM     24  C           0     134.324 135.267 136.094  0.00  0.00     0.358 C 
ATOM     25  N           0     134.870 135.694 137.250  0.00  0.00    -0.346 N 
ATOM     26  H           0     134.588 136.537 137.638  0.00  0.00     0.161 HD
ATOM     27  H           0     135.545 135.158 137.695  0.00  0.00     0.161 HD
ATOM     28  O           0     134.677 134.211 135.609  0.00  0.00    -0.239 OA
ENDBRANCH  23  24
ENDBRANCH  22  23
ENDBRANCH   6  22
BRANCH  18  29
ATOM     29  O           0     131.495 131.978 131.287  0.00  0.00    -0.360 OA
ATOM     30  H           0     132.245 131.657 130.767  0.00  0.00     0.213 HD
ENDBRANCH  18  29
BRANCH  18  31
ATOM     31  O           0     133.126 133.383 132.221  0.00  0.00    -0.360 OA
ATOM     32  H           0     133.587 133.530 133.059  0.00  0.00     0.213 HD
ENDBRANCH  18  31
BRANCH  17  33
ATOM     33  O           0     133.862 131.496 133.767  0.00  0.00    -0.244 OA
BRANCH  33  34
ATOM     34  S           0     134.449 130.091 133.762  0.00  0.00     0.252 S 
ATOM     35  O           0     134.752 129.768 135.148  0.00  0.00    -0.572 OA
ATOM     36  O           0     133.426 129.221 133.202  0.00  0.00    -0.572 OA
ATOM     37  O           0     135.642 130.148 132.933  0.00  0.00    -0.572 OA
ENDBRANCH  33  34
ENDBRANCH  17  33
TORSDOF 7
ENDMDL
MODEL 9
REMARK VINA RESULT:      -6.9      3.805      6.088
REMARK  7 active torsions:
REMARK  status: ('A' for Active; 'I' for Inactive)
REMARK    1  A    between atoms: C_6  and  C_7 
REMARK    2  A    between atoms: C_7  and  O_8 
REMARK    3  A    between atoms: O_8  and  C_9 
REMARK       I    between atoms: C_9  and  N_10 
REMARK    4  A    between atoms: C_22  and  O_23 
REMARK    5  A    between atoms: O_23  and  S_24 
REMARK    6  A    between atoms: C_28  and  O_29 
REMARK    7  A    between atoms: C_28  and  O_30 
ROOT
ATOM      1  N           0     139.286 130.541 146.174  0.00  0.00    -0.235 N 
ATOM      2  H           0     139.928 130.568 145.448  0.00  0.00     0.174 HD
ATOM      3  H           0     139.383 129.886 146.883  0.00  0.00     0.174 HD
ATOM      4  C           0     138.296 131.388 146.200  0.00  0.00     0.672 C 
ATOM      5  N           0     138.118 132.344 145.215  0.00  0.00    -0.218 N 
ATOM      6  C           0     136.761 132.808 144.939  0.00  0.00     0.151 C 
ATOM      7  C           0     136.026 133.243 146.191  0.00  0.00     0.180 C 
ATOM      8  N           0     136.511 134.578 146.602  0.00  0.00    -0.216 N 
ATOM      9  C           0     136.601 134.583 147.972  0.00  0.00     0.670 C 
ATOM     10  N           0     136.640 135.664 148.699  0.00  0.00    -0.235 N 
ATOM     11  H           0     136.607 136.535 148.275  0.00  0.00     0.174 HD
ATOM     12  H           0     136.704 135.597 149.665  0.00  0.00     0.174 HD
ATOM     13  C           0     136.294 132.368 147.405  0.00  0.00     0.220 C 
ATOM     14  N           0     136.644 133.309 148.482  0.00  0.00    -0.191 N 
ATOM     15  N           0     137.361 131.386 147.201  0.00  0.00    -0.180 N 
ATOM     16  C           0     137.170 130.378 148.261  0.00  0.00     0.183 C 
ATOM     17  C           0     135.635 130.226 148.374  0.00  0.00     0.230 C 
ATOM     18  C           0     135.056 131.548 147.808  0.00  0.00     0.238 C 
ATOM     19  H           0     138.874 132.697 144.721  0.00  0.00     0.178 HD
ATOM     20  H           0     136.728 135.316 146.011  0.00  0.00     0.178 HD
ATOM     21  H           0     136.863 133.070 149.396  0.00  0.00     0.180 HD
ENDROOT
BRANCH   6  22
ATOM     22  C           0     135.976 131.674 144.276  0.00  0.00     0.208 C 
BRANCH  22  23
ATOM     23  O           0     134.696 132.178 143.813  0.00  0.00    -0.302 OA
BRANCH  23  24
ATOM     24  C           0     134.420 132.202 142.495  0.00  0.00     0.358 C 
ATOM     25  N           0     133.259 131.689 142.041  0.00  0.00    -0.346 N 
ATOM     26  H           0     132.624 131.303 142.662  0.00  0.00     0.161 HD
ATOM     27  H           0     133.060 131.706 141.092  0.00  0.00     0.161 HD
ATOM     28  O           0     135.216 132.686 141.716  0.00  0.00    -0.239 OA
ENDBRANCH  23  24
ENDBRANCH  22  23
ENDBRANCH   6  22
BRANCH  18  29
ATOM     29  O           0     134.305 132.233 148.812  0.00  0.00    -0.360 OA
ATOM     30  H           0     133.747 131.571 149.244  0.00  0.00     0.213 HD
ENDBRANCH  18  29
BRANCH  18  31
ATOM     31  O           0     134.240 131.286 146.665  0.00  0.00    -0.360 OA
ATOM     32  H           0     134.270 132.079 146.111  0.00  0.00     0.213 HD
ENDBRANCH  18  31
BRANCH  17  33
ATOM     33  O           0     135.188 129.112 147.599  0.00  0.00    -0.244 OA
BRANCH  33  34
ATOM     34  S           0     134.196 128.345 148.463  0.00  0.00     0.252 S 
ATOM     35  O           0     133.524 127.405 147.580  0.00  0.00    -0.572 OA
ATOM     36  O           0     134.980 127.676 149.491  0.00  0.00    -0.572 OA
ATOM     37  O           0     133.284 129.333 149.017  0.00  0.00    -0.572 OA
ENDBRANCH  33  34
ENDBRANCH  17  33
TORSDOF 7
ENDMDL
