# created with PyMOL 2.3.4
@<TRIPOS>MOLECULE
ligand_out_0001
32 34 1                 
SMALL
USER_CHARGES
@<TRIPOS>ATOM
1	   N	135.014	136.764	143.150	N.3	1	UNK0	-0.235	
2	   N	133.770	134.772	143.009	N.3	1	UNK0	-0.218	
3	   N	134.078	132.169	144.628	N.3	1	UNK0	-0.216	
4	   N	134.837	131.643	146.806	N.3	1	UNK0	-0.235	
5	   N	136.075	133.003	145.319	N.3	1	UNK0	-0.191	
6	   N	136.025	134.701	143.597	N.3	1	UNK0	-0.183	
7	   N	133.532	136.011	139.866	N.pl3	1	UNK0	-0.346	
8	   C	134.943	135.466	143.250	C.3	1	UNK0	0.672	
9	   C	133.866	133.397	142.529	C.3	1	UNK0	0.151	
10	   C	134.782	132.543	143.383	C.3	1	UNK0	0.180	
11	   C	134.987	132.236	145.655	C.3	1	UNK0	0.670	
12	   C	136.029	133.264	143.871	C.3	1	UNK0	0.217	
13	   C	137.433	135.124	143.715	C.3	1	UNK0	0.150	
14	   C	138.237	133.956	143.095	C.3	1	UNK0	0.093	
15	   C	137.305	132.722	143.202	C.3	1	UNK0	0.209	
16	   C	134.401	133.412	141.095	C.2	1	UNK0	0.208	
17	   C	133.403	134.771	139.354	C.2	1	UNK0	0.358	
18	   O	133.317	133.708	140.177	O.2	1	UNK0	-0.302	
19	   O	133.365	134.611	138.150	O.co2	1	UNK0	-0.239	
20	   O	137.907	131.711	144.012	O.2	1	UNK0	-0.362	
21	   O	137.005	132.210	141.902	O.2	1	UNK0	-0.362	
22	   H	134.230	137.276	142.899	 H	1	UNK0	0.174	
23	   H	135.853	137.219	143.330	 H	1	UNK0	0.174	
24	   H	134.042	131.114	146.978	 H	1	UNK0	0.174	
25	   H	135.520	131.731	147.489	 H	1	UNK0	0.174	
26	   H	132.907	135.188	143.156	 H	1	UNK0	0.178	
27	   H	133.143	131.922	144.706	 H	1	UNK0	0.178	
28	   H	136.758	133.318	145.931	 H	1	UNK0	0.180	
29	   H	133.563	136.139	140.828	 H	1	UNK0	0.161	
30	   H	133.593	136.777	139.273	 H	1	UNK0	0.161	
31	   H	137.416	131.691	144.845	 H	1	UNK0	0.213	
32	   H	137.850	132.092	141.447	 H	1	UNK0	0.213	
@<TRIPOS>BOND
1 1 8 1
2 1 22 1
3 1 23 1
4 2 9 1
5 2 26 1
6 3 11 1
7 3 27 1
8 4 24 1
9 4 25 1
10 5 28 1
11 6 13 1
12 7 29 1
13 7 30 1
14 2 8 1
15 6 8 1
16 9 10 1
17 9 16 1
18 3 10 1
19 10 12 1
20 4 11 1
21 5 11 1
22 5 12 1
23 6 12 1
24 12 15 1
25 13 14 1
26 14 15 1
27 15 20 2
28 15 21 2
29 16 18 2
30 7 17 1
31 17 19 2
32 17 18 2
33 20 31 1
34 21 32 1
@<TRIPOS>SUBSTRUCTURE
1	UNK0	1	GROUP	1 ****	UNK
