MODEL 1
REMARK VINA RESULT:      -7.9      0.000      0.000
REMARK  5 active torsions:
REMARK  status: ('A' for Active; 'I' for Inactive)
REMARK    1  A    between atoms: C_6  and  C_7 
REMARK    2  A    between atoms: C_7  and  O_8 
REMARK    3  A    between atoms: O_8  and  C_9 
REMARK       I    between atoms: C_9  and  N_10 
REMARK    4  A    between atoms: C_23  and  O_24 
REMARK    5  A    between atoms: C_23  and  O_25 
ROOT
ATOM      1  N           0     135.014 136.764 143.150  0.00  0.00    -0.235 N 
ATOM      2  H           0     134.230 137.276 142.899  0.00  0.00     0.174 HD
ATOM      3  H           0     135.853 137.219 143.330  0.00  0.00     0.174 HD
ATOM      4  C           0     134.943 135.466 143.250  0.00  0.00     0.672 C 
ATOM      5  N           0     133.770 134.772 143.009  0.00  0.00    -0.218 N 
ATOM      6  C           0     133.866 133.397 142.529  0.00  0.00     0.151 C 
ATOM      7  C           0     134.782 132.543 143.383  0.00  0.00     0.180 C 
ATOM      8  N           0     134.078 132.169 144.628  0.00  0.00    -0.216 N 
ATOM      9  C           0     134.987 132.236 145.655  0.00  0.00     0.670 C 
ATOM     10  N           0     134.837 131.643 146.806  0.00  0.00    -0.235 N 
ATOM     11  H           0     134.042 131.114 146.978  0.00  0.00     0.174 HD
ATOM     12  H           0     135.520 131.731 147.489  0.00  0.00     0.174 HD
ATOM     13  C           0     136.029 133.264 143.871  0.00  0.00     0.217 C 
ATOM     14  N           0     136.075 133.003 145.319  0.00  0.00    -0.191 N 
ATOM     15  N           0     136.025 134.701 143.597  0.00  0.00    -0.183 N 
ATOM     16  C           0     137.433 135.124 143.715  0.00  0.00     0.150 C 
ATOM     17  C           0     138.237 133.956 143.095  0.00  0.00     0.093 C 
ATOM     18  C           0     137.305 132.722 143.202  0.00  0.00     0.209 C 
ATOM     19  H           0     132.907 135.188 143.156  0.00  0.00     0.178 HD
ATOM     20  H           0     133.143 131.922 144.706  0.00  0.00     0.178 HD
ATOM     21  H           0     136.758 133.318 145.931  0.00  0.00     0.180 HD
ENDROOT
BRANCH   6  22
ATOM     22  C           0     134.401 133.412 141.095  0.00  0.00     0.208 C 
BRANCH  22  23
ATOM     23  O           0     133.317 133.708 140.177  0.00  0.00    -0.302 OA
BRANCH  23  24
ATOM     24  C           0     133.403 134.771 139.354  0.00  0.00     0.358 C 
ATOM     25  N           0     133.532 136.011 139.866  0.00  0.00    -0.346 N 
ATOM     26  H           0     133.563 136.139 140.828  0.00  0.00     0.161 HD
ATOM     27  H           0     133.593 136.777 139.273  0.00  0.00     0.161 HD
ATOM     28  O           0     133.365 134.611 138.150  0.00  0.00    -0.239 OA
ENDBRANCH  23  24
ENDBRANCH  22  23
ENDBRANCH   6  22
BRANCH  18  29
ATOM     29  O           0     137.907 131.711 144.012  0.00  0.00    -0.362 OA
ATOM     30  H           0     137.416 131.691 144.845  0.00  0.00     0.213 HD
ENDBRANCH  18  29
BRANCH  18  31
ATOM     31  O           0     137.005 132.210 141.902  0.00  0.00    -0.362 OA
ATOM     32  H           0     137.850 132.092 141.447  0.00  0.00     0.213 HD
ENDBRANCH  18  31
TORSDOF 5
ENDMDL
MODEL 2
REMARK VINA RESULT:      -7.5      1.919      5.628
REMARK  5 active torsions:
REMARK  status: ('A' for Active; 'I' for Inactive)
REMARK    1  A    between atoms: C_6  and  C_7 
REMARK    2  A    between atoms: C_7  and  O_8 
REMARK    3  A    between atoms: O_8  and  C_9 
REMARK       I    between atoms: C_9  and  N_10 
REMARK    4  A    between atoms: C_23  and  O_24 
REMARK    5  A    between atoms: C_23  and  O_25 
ROOT
ATOM      1  N           0     134.759 131.881 146.530  0.00  0.00    -0.235 N 
ATOM      2  H           0     134.994 131.928 147.470  0.00  0.00     0.174 HD
ATOM      3  H           0     134.088 131.248 146.229  0.00  0.00     0.174 HD
ATOM      4  C           0     135.342 132.670 145.672  0.00  0.00     0.672 C 
ATOM      5  N           0     136.302 133.592 146.052  0.00  0.00    -0.218 N 
ATOM      6  C           0     137.321 133.971 145.078  0.00  0.00     0.151 C 
ATOM      7  C           0     136.729 134.391 143.747  0.00  0.00     0.180 C 
ATOM      8  N           0     136.185 135.759 143.867  0.00  0.00    -0.216 N 
ATOM      9  C           0     135.008 135.801 143.161  0.00  0.00     0.670 C 
ATOM     10  N           0     134.442 136.898 142.743  0.00  0.00    -0.235 N 
ATOM     11  H           0     134.856 137.756 142.926  0.00  0.00     0.174 HD
ATOM     12  H           0     133.609 136.856 142.248  0.00  0.00     0.174 HD
ATOM     13  C           0     135.535 133.559 143.308  0.00  0.00     0.217 C 
ATOM     14  N           0     134.499 134.543 142.950  0.00  0.00    -0.191 N 
ATOM     15  N           0     135.048 132.637 144.334  0.00  0.00    -0.183 N 
ATOM     16  C           0     134.233 131.644 143.611  0.00  0.00     0.150 C 
ATOM     17  C           0     135.002 131.406 142.288  0.00  0.00     0.093 C 
ATOM     18  C           0     135.863 132.680 142.089  0.00  0.00     0.209 C 
ATOM     19  H           0     136.297 133.976 146.942  0.00  0.00     0.178 HD
ATOM     20  H           0     136.586 136.496 144.355  0.00  0.00     0.178 HD
ATOM     21  H           0     133.611 134.338 142.619  0.00  0.00     0.180 HD
ENDROOT
BRANCH   6  22
ATOM     22  C           0     138.253 132.779 144.850  0.00  0.00     0.208 C 
BRANCH  22  23
ATOM     23  O           0     138.775 132.321 146.124  0.00  0.00    -0.302 OA
BRANCH  23  24
ATOM     24  C           0     138.680 131.021 146.463  0.00  0.00     0.358 C 
ATOM     25  N           0     139.793 130.270 146.574  0.00  0.00    -0.346 N 
ATOM     26  H           0     140.664 130.666 146.410  0.00  0.00     0.161 HD
ATOM     27  H           0     139.725 129.333 146.818  0.00  0.00     0.161 HD
ATOM     28  O           0     137.589 130.525 146.669  0.00  0.00    -0.239 OA
ENDBRANCH  23  24
ENDBRANCH  22  23
ENDBRANCH   6  22
BRANCH  18  29
ATOM     29  O           0     135.498 133.342 140.877  0.00  0.00    -0.362 OA
ATOM     30  H           0     134.670 132.941 140.578  0.00  0.00     0.213 HD
ENDBRANCH  18  29
BRANCH  18  31
ATOM     31  O           0     137.252 132.345 142.077  0.00  0.00    -0.362 OA
ATOM     32  H           0     137.309 131.393 141.917  0.00  0.00     0.213 HD
ENDBRANCH  18  31
TORSDOF 5
ENDMDL
MODEL 3
REMARK VINA RESULT:      -6.8      2.921      4.798
REMARK  5 active torsions:
REMARK  status: ('A' for Active; 'I' for Inactive)
REMARK    1  A    between atoms: C_6  and  C_7 
REMARK    2  A    between atoms: C_7  and  O_8 
REMARK    3  A    between atoms: O_8  and  C_9 
REMARK       I    between atoms: C_9  and  N_10 
REMARK    4  A    between atoms: C_23  and  O_24 
REMARK    5  A    between atoms: C_23  and  O_25 
ROOT
ATOM      1  N           0     139.649 130.610 146.046  0.00  0.00    -0.235 N 
ATOM      2  H           0     140.402 130.760 145.454  0.00  0.00     0.174 HD
ATOM      3  H           0     139.682 129.893 146.700  0.00  0.00     0.174 HD
ATOM      4  C           0     138.594 131.371 145.968  0.00  0.00     0.672 C 
ATOM      5  N           0     138.500 132.408 145.056  0.00  0.00    -0.218 N 
ATOM      6  C           0     137.175 132.794 144.580  0.00  0.00     0.151 C 
ATOM      7  C           0     136.196 133.038 145.712  0.00  0.00     0.180 C 
ATOM      8  N           0     136.476 134.355 146.321  0.00  0.00    -0.216 N 
ATOM      9  C           0     136.325 134.225 147.680  0.00  0.00     0.670 C 
ATOM     10  N           0     136.137 135.223 148.496  0.00  0.00    -0.235 N 
ATOM     11  H           0     136.095 136.129 148.151  0.00  0.00     0.174 HD
ATOM     12  H           0     136.037 135.060 149.447  0.00  0.00     0.174 HD
ATOM     13  C           0     136.331 132.064 146.871  0.00  0.00     0.217 C 
ATOM     14  N           0     136.398 132.911 148.073  0.00  0.00    -0.191 N 
ATOM     15  N           0     137.503 131.193 146.778  0.00  0.00    -0.183 N 
ATOM     16  C           0     137.228 130.069 147.691  0.00  0.00     0.150 C 
ATOM     17  C           0     135.716 129.789 147.510  0.00  0.00     0.093 C 
ATOM     18  C           0     135.123 131.115 146.968  0.00  0.00     0.209 C 
ATOM     19  H           0     139.294 132.867 144.742  0.00  0.00     0.178 HD
ATOM     20  H           0     136.721 135.166 145.847  0.00  0.00     0.178 HD
ATOM     21  H           0     136.477 132.596 148.987  0.00  0.00     0.180 HD
ENDROOT
BRANCH   6  22
ATOM     22  C           0     136.628 131.679 143.687  0.00  0.00     0.208 C 
BRANCH  22  23
ATOM     23  O           0     135.325 132.063 143.176  0.00  0.00    -0.302 OA
BRANCH  23  24
ATOM     24  C           0     135.218 133.081 142.301  0.00  0.00     0.358 C 
ATOM     25  N           0     135.893 133.042 141.135  0.00  0.00    -0.346 N 
ATOM     26  H           0     136.457 132.281 140.926  0.00  0.00     0.161 HD
ATOM     27  H           0     135.817 133.776 140.505  0.00  0.00     0.161 HD
ATOM     28  O           0     134.511 134.034 142.562  0.00  0.00    -0.239 OA
ENDBRANCH  23  24
ENDBRANCH  22  23
ENDBRANCH   6  22
BRANCH  18  29
ATOM     29  O           0     134.149 131.632 147.875  0.00  0.00    -0.362 OA
ATOM     30  H           0     133.924 130.913 148.483  0.00  0.00     0.213 HD
ENDBRANCH  18  29
BRANCH  18  31
ATOM     31  O           0     134.546 130.912 145.676  0.00  0.00    -0.362 OA
ATOM     32  H           0     135.098 130.259 145.223  0.00  0.00     0.213 HD
ENDBRANCH  18  31
TORSDOF 5
ENDMDL
MODEL 4
REMARK VINA RESULT:      -6.7      3.014      4.493
REMARK  5 active torsions:
REMARK  status: ('A' for Active; 'I' for Inactive)
REMARK    1  A    between atoms: C_6  and  C_7 
REMARK    2  A    between atoms: C_7  and  O_8 
REMARK    3  A    between atoms: O_8  and  C_9 
REMARK       I    between atoms: C_9  and  N_10 
REMARK    4  A    between atoms: C_23  and  O_24 
REMARK    5  A    between atoms: C_23  and  O_25 
ROOT
ATOM      1  N           0     136.155 134.658 147.340  0.00  0.00    -0.235 N 
ATOM      2  H           0     135.693 135.386 146.896  0.00  0.00     0.174 HD
ATOM      3  H           0     136.653 134.826 148.156  0.00  0.00     0.174 HD
ATOM      4  C           0     136.106 133.454 146.844  0.00  0.00     0.672 C 
ATOM      5  N           0     135.406 133.162 145.685  0.00  0.00    -0.218 N 
ATOM      6  C           0     135.864 132.047 144.863  0.00  0.00     0.151 C 
ATOM      7  C           0     136.055 130.772 145.661  0.00  0.00     0.180 C 
ATOM      8  N           0     134.735 130.166 145.933  0.00  0.00    -0.216 N 
ATOM      9  C           0     134.761 129.676 147.216  0.00  0.00     0.670 C 
ATOM     10  N           0     133.935 128.778 147.674  0.00  0.00    -0.235 N 
ATOM     11  H           0     133.247 128.413 147.096  0.00  0.00     0.174 HD
ATOM     12  H           0     134.008 128.474 148.592  0.00  0.00     0.174 HD
ATOM     13  C           0     136.651 130.988 147.043  0.00  0.00     0.217 C 
ATOM     14  N           0     135.764 130.249 147.957  0.00  0.00    -0.191 N 
ATOM     15  N           0     136.748 132.395 147.431  0.00  0.00    -0.183 N 
ATOM     16  C           0     137.721 132.428 148.539  0.00  0.00     0.150 C 
ATOM     17  C           0     138.797 131.391 148.135  0.00  0.00     0.093 C 
ATOM     18  C           0     138.083 130.436 147.144  0.00  0.00     0.209 C 
ATOM     19  H           0     134.631 133.685 145.428  0.00  0.00     0.178 HD
ATOM     20  H           0     133.986 130.122 145.318  0.00  0.00     0.178 HD
ATOM     21  H           0     135.872 130.177 148.918  0.00  0.00     0.180 HD
ENDROOT
BRANCH   6  22
ATOM     22  C           0     137.196 132.427 144.213  0.00  0.00     0.208 C 
BRANCH  22  23
ATOM     23  O           0     136.958 133.372 143.138  0.00  0.00    -0.302 OA
BRANCH  23  24
ATOM     24  C           0     137.482 134.611 143.202  0.00  0.00     0.358 C 
ATOM     25  N           0     136.711 135.650 143.578  0.00  0.00    -0.346 N 
ATOM     26  H           0     135.778 135.506 143.803  0.00  0.00     0.161 HD
ATOM     27  H           0     137.088 136.543 143.624  0.00  0.00     0.161 HD
ATOM     28  O           0     138.651 134.792 142.921  0.00  0.00    -0.239 OA
ENDBRANCH  23  24
ENDBRANCH  22  23
ENDBRANCH   6  22
BRANCH  18  29
ATOM     29  O           0     138.074 129.103 147.659  0.00  0.00    -0.362 OA
ATOM     30  H           0     137.616 128.555 147.006  0.00  0.00     0.213 HD
ENDBRANCH  18  29
BRANCH  18  31
ATOM     31  O           0     138.722 130.474 145.867  0.00  0.00    -0.362 OA
ATOM     32  H           0     139.531 130.994 145.975  0.00  0.00     0.213 HD
ENDBRANCH  18  31
TORSDOF 5
ENDMDL
MODEL 5
REMARK VINA RESULT:      -6.7      2.363      5.133
REMARK  5 active torsions:
REMARK  status: ('A' for Active; 'I' for Inactive)
REMARK    1  A    between atoms: C_6  and  C_7 
REMARK    2  A    between atoms: C_7  and  O_8 
REMARK    3  A    between atoms: O_8  and  C_9 
REMARK       I    between atoms: C_9  and  N_10 
REMARK    4  A    between atoms: C_23  and  O_24 
REMARK    5  A    between atoms: C_23  and  O_25 
ROOT
ATOM      1  N           0     136.039 134.621 146.633  0.00  0.00    -0.235 N 
ATOM      2  H           0     136.499 135.441 146.869  0.00  0.00     0.174 HD
ATOM      3  H           0     135.594 134.100 147.320  0.00  0.00     0.174 HD
ATOM      4  C           0     136.016 134.219 145.393  0.00  0.00     0.672 C 
ATOM      5  N           0     136.632 134.929 144.377  0.00  0.00    -0.218 N 
ATOM      6  C           0     137.113 134.192 143.212  0.00  0.00     0.151 C 
ATOM      7  C           0     136.052 133.289 142.614  0.00  0.00     0.180 C 
ATOM      8  N           0     135.099 134.107 141.835  0.00  0.00    -0.216 N 
ATOM      9  C           0     133.841 133.605 142.060  0.00  0.00     0.670 C 
ATOM     10  N           0     132.815 133.824 141.286  0.00  0.00    -0.235 N 
ATOM     11  H           0     132.916 134.373 140.493  0.00  0.00     0.174 HD
ATOM     12  H           0     131.953 133.438 141.504  0.00  0.00     0.174 HD
ATOM     13  C           0     135.178 132.591 143.643  0.00  0.00     0.217 C 
ATOM     14  N           0     133.797 132.842 143.201  0.00  0.00    -0.191 N 
ATOM     15  N           0     135.384 133.064 145.012  0.00  0.00    -0.183 N 
ATOM     16  C           0     134.824 132.011 145.878  0.00  0.00     0.150 C 
ATOM     17  C           0     135.211 130.689 145.173  0.00  0.00     0.093 C 
ATOM     18  C           0     135.444 131.076 143.690  0.00  0.00     0.209 C 
ATOM     19  H           0     136.741 135.890 144.438  0.00  0.00     0.178 HD
ATOM     20  H           0     135.322 134.862 141.267  0.00  0.00     0.178 HD
ATOM     21  H           0     132.993 132.522 143.639  0.00  0.00     0.180 HD
ENDROOT
BRANCH   6  22
ATOM     22  C           0     138.311 133.338 143.628  0.00  0.00     0.208 C 
BRANCH  22  23
ATOM     23  O           0     138.435 133.349 145.074  0.00  0.00    -0.302 OA
BRANCH  23  24
ATOM     24  C           0     139.059 132.335 145.705  0.00  0.00     0.358 C 
ATOM     25  N           0     138.571 131.082 145.614  0.00  0.00    -0.346 N 
ATOM     26  H           0     137.769 130.910 145.094  0.00  0.00     0.161 HD
ATOM     27  H           0     139.019 130.352 146.068  0.00  0.00     0.161 HD
ATOM     28  O           0     140.062 132.551 146.356  0.00  0.00    -0.239 OA
ENDBRANCH  23  24
ENDBRANCH  22  23
ENDBRANCH   6  22
BRANCH  18  29
ATOM     29  O           0     134.528 130.378 142.845  0.00  0.00    -0.362 OA
ATOM     30  H           0     134.994 129.599 142.510  0.00  0.00     0.213 HD
ENDBRANCH  18  29
BRANCH  18  31
ATOM     31  O           0     136.791 130.795 143.307  0.00  0.00    -0.362 OA
ATOM     32  H           0     137.338 131.507 143.668  0.00  0.00     0.213 HD
ENDBRANCH  18  31
TORSDOF 5
ENDMDL
MODEL 6
REMARK VINA RESULT:      -6.6      2.757      4.586
REMARK  5 active torsions:
REMARK  status: ('A' for Active; 'I' for Inactive)
REMARK    1  A    between atoms: C_6  and  C_7 
REMARK    2  A    between atoms: C_7  and  O_8 
REMARK    3  A    between atoms: O_8  and  C_9 
REMARK       I    between atoms: C_9  and  N_10 
REMARK    4  A    between atoms: C_23  and  O_24 
REMARK    5  A    between atoms: C_23  and  O_25 
ROOT
ATOM      1  N           0     134.849 129.791 145.405  0.00  0.00    -0.235 N 
ATOM      2  H           0     134.497 129.364 144.609  0.00  0.00     0.174 HD
ATOM      3  H           0     134.607 129.456 146.283  0.00  0.00     0.174 HD
ATOM      4  C           0     135.650 130.814 145.296  0.00  0.00     0.672 C 
ATOM      5  N           0     136.029 131.327 144.067  0.00  0.00    -0.218 N 
ATOM      6  C           0     136.366 132.745 143.984  0.00  0.00     0.151 C 
ATOM      7  C           0     137.378 133.167 145.031  0.00  0.00     0.180 C 
ATOM      8  N           0     138.723 132.715 144.617  0.00  0.00    -0.216 N 
ATOM      9  C           0     139.377 132.275 145.742  0.00  0.00     0.670 C 
ATOM     10  N           0     140.670 132.147 145.835  0.00  0.00    -0.235 N 
ATOM     11  H           0     141.235 132.369 145.078  0.00  0.00     0.174 HD
ATOM     12  H           0     141.068 131.831 146.661  0.00  0.00     0.174 HD
ATOM     13  C           0     137.175 132.516 146.389  0.00  0.00     0.217 C 
ATOM     14  N           0     138.499 131.987 146.758  0.00  0.00    -0.191 N 
ATOM     15  N           0     136.168 131.455 146.391  0.00  0.00    -0.183 N 
ATOM     16  C           0     135.797 131.272 147.806  0.00  0.00     0.150 C 
ATOM     17  C           0     135.787 132.707 148.388  0.00  0.00     0.093 C 
ATOM     18  C           0     136.704 133.529 147.448  0.00  0.00     0.209 C 
ATOM     19  H           0     136.069 130.758 143.283  0.00  0.00     0.178 HD
ATOM     20  H           0     139.080 132.727 143.715  0.00  0.00     0.178 HD
ATOM     21  H           0     138.715 131.518 147.579  0.00  0.00     0.180 HD
ENDROOT
BRANCH   6  22
ATOM     22  C           0     135.090 133.567 144.171  0.00  0.00     0.208 C 
BRANCH  22  23
ATOM     23  O           0     135.341 134.945 143.789  0.00  0.00    -0.302 OA
BRANCH  23  24
ATOM     24  C           0     134.532 135.556 142.902  0.00  0.00     0.358 C 
ATOM     25  N           0     134.607 136.891 142.731  0.00  0.00    -0.346 N 
ATOM     26  H           0     135.244 137.412 143.246  0.00  0.00     0.161 HD
ATOM     27  H           0     134.024 137.332 142.093  0.00  0.00     0.161 HD
ATOM     28  O           0     133.735 134.904 142.257  0.00  0.00    -0.239 OA
ENDBRANCH  23  24
ENDBRANCH  22  23
ENDBRANCH   6  22
BRANCH  18  29
ATOM     29  O           0     137.818 134.054 148.173  0.00  0.00    -0.362 OA
ATOM     30  H           0     137.646 133.885 149.109  0.00  0.00     0.213 HD
ENDBRANCH  18  29
BRANCH  18  31
ATOM     31  O           0     135.966 134.585 146.830  0.00  0.00    -0.362 OA
ATOM     32  H           0     135.132 134.664 147.315  0.00  0.00     0.213 HD
ENDBRANCH  18  31
TORSDOF 5
ENDMDL
MODEL 7
REMARK VINA RESULT:      -6.4      6.795      9.546
REMARK  5 active torsions:
REMARK  status: ('A' for Active; 'I' for Inactive)
REMARK    1  A    between atoms: C_6  and  C_7 
REMARK    2  A    between atoms: C_7  and  O_8 
REMARK    3  A    between atoms: O_8  and  C_9 
REMARK       I    between atoms: C_9  and  N_10 
REMARK    4  A    between atoms: C_23  and  O_24 
REMARK    5  A    between atoms: C_23  and  O_25 
ROOT
ATOM      1  N           0     132.196 137.311 132.425  0.00  0.00    -0.235 N 
ATOM      2  H           0     131.424 137.886 132.303  0.00  0.00     0.174 HD
ATOM      3  H           0     132.963 137.398 131.838  0.00  0.00     0.174 HD
ATOM      4  C           0     132.204 136.423 133.380  0.00  0.00     0.672 C 
ATOM      5  N           0     131.136 136.263 134.246  0.00  0.00    -0.218 N 
ATOM      6  C           0     130.914 134.945 134.834  0.00  0.00     0.151 C 
ATOM      7  C           0     132.164 134.374 135.476  0.00  0.00     0.180 C 
ATOM      8  N           0     132.386 135.034 136.779  0.00  0.00    -0.216 N 
ATOM      9  C           0     133.737 135.244 136.912  0.00  0.00     0.670 C 
ATOM     10  N           0     134.336 135.463 138.049  0.00  0.00    -0.235 N 
ATOM     11  H           0     133.822 135.486 138.871  0.00  0.00     0.174 HD
ATOM     12  H           0     135.296 135.603 138.072  0.00  0.00     0.174 HD
ATOM     13  C           0     133.442 134.652 134.702  0.00  0.00     0.217 C 
ATOM     14  N           0     134.379 135.194 135.700  0.00  0.00    -0.191 N 
ATOM     15  N           0     133.267 135.584 133.588  0.00  0.00    -0.183 N 
ATOM     16  C           0     134.442 135.381 132.721  0.00  0.00     0.150 C 
ATOM     17  C           0     134.688 133.853 132.761  0.00  0.00     0.093 C 
ATOM     18  C           0     134.026 133.373 134.077  0.00  0.00     0.209 C 
ATOM     19  H           0     130.551 137.007 134.457  0.00  0.00     0.178 HD
ATOM     20  H           0     131.703 135.276 137.424  0.00  0.00     0.178 HD
ATOM     21  H           0     135.295 135.465 135.530  0.00  0.00     0.180 HD
ENDROOT
BRANCH   6  22
ATOM     22  C           0     130.441 133.989 133.738  0.00  0.00     0.208 C 
BRANCH  22  23
ATOM     23  O           0     129.213 134.493 133.152  0.00  0.00    -0.302 OA
BRANCH  23  24
ATOM     24  C           0     128.683 133.886 132.073  0.00  0.00     0.358 C 
ATOM     25  N           0     128.125 132.664 132.193  0.00  0.00    -0.346 N 
ATOM     26  H           0     128.106 132.222 133.056  0.00  0.00     0.161 HD
ATOM     27  H           0     127.744 132.227 131.415  0.00  0.00     0.161 HD
ATOM     28  O           0     128.706 134.440 130.992  0.00  0.00    -0.239 OA
ENDBRANCH  23  24
ENDBRANCH  22  23
ENDBRANCH   6  22
BRANCH  18  29
ATOM     29  O           0     135.002 132.791 134.942  0.00  0.00    -0.362 OA
ATOM     30  H           0     134.579 132.676 135.804  0.00  0.00     0.213 HD
ENDBRANCH  18  29
BRANCH  18  31
ATOM     31  O           0     132.983 132.436 133.797  0.00  0.00    -0.362 OA
ATOM     32  H           0     132.158 132.940 133.763  0.00  0.00     0.213 HD
ENDBRANCH  18  31
TORSDOF 5
ENDMDL
MODEL 8
REMARK VINA RESULT:      -6.4      7.919     10.283
REMARK  5 active torsions:
REMARK  status: ('A' for Active; 'I' for Inactive)
REMARK    1  A    between atoms: C_6  and  C_7 
REMARK    2  A    between atoms: C_7  and  O_8 
REMARK    3  A    between atoms: O_8  and  C_9 
REMARK       I    between atoms: C_9  and  N_10 
REMARK    4  A    between atoms: C_23  and  O_24 
REMARK    5  A    between atoms: C_23  and  O_25 
ROOT
ATOM      1  N           0     128.830 133.929 132.075  0.00  0.00    -0.235 N 
ATOM      2  H           0     128.135 133.472 131.578  0.00  0.00     0.174 HD
ATOM      3  H           0     128.955 134.886 131.968  0.00  0.00     0.174 HD
ATOM      4  C           0     129.597 133.261 132.891  0.00  0.00     0.672 C 
ATOM      5  N           0     129.456 131.897 133.082  0.00  0.00    -0.218 N 
ATOM      6  C           0     130.637 131.127 133.462  0.00  0.00     0.151 C 
ATOM      7  C           0     131.366 131.723 134.651  0.00  0.00     0.180 C 
ATOM      8  N           0     130.626 131.396 135.887  0.00  0.00    -0.216 N 
ATOM      9  C           0     130.666 132.504 136.699  0.00  0.00     0.670 C 
ATOM     10  N           0     130.446 132.479 137.984  0.00  0.00    -0.235 N 
ATOM     11  H           0     130.238 131.640 138.424  0.00  0.00     0.174 HD
ATOM     12  H           0     130.491 133.299 138.499  0.00  0.00     0.174 HD
ATOM     13  C           0     131.421 133.242 134.648  0.00  0.00     0.217 C 
ATOM     14  N           0     130.967 133.640 135.990  0.00  0.00    -0.191 N 
ATOM     15  N           0     130.597 133.861 133.610  0.00  0.00    -0.183 N 
ATOM     16  C           0     131.112 135.235 133.471  0.00  0.00     0.150 C 
ATOM     17  C           0     132.646 135.086 133.620  0.00  0.00     0.093 C 
ATOM     18  C           0     132.848 133.764 134.403  0.00  0.00     0.209 C 
ATOM     19  H           0     128.596 131.465 132.967  0.00  0.00     0.178 HD
ATOM     20  H           0     130.190 130.553 136.090  0.00  0.00     0.178 HD
ATOM     21  H           0     130.895 134.550 136.319  0.00  0.00     0.180 HD
ENDROOT
BRANCH   6  22
ATOM     22  C           0     131.596 131.075 132.271  0.00  0.00     0.208 C 
BRANCH  22  23
ATOM     23  O           0     131.885 129.691 131.941  0.00  0.00    -0.302 OA
BRANCH  23  24
ATOM     24  C           0     132.382 128.864 132.880  0.00  0.00     0.358 C 
ATOM     25  N           0     131.660 127.805 133.296  0.00  0.00    -0.346 N 
ATOM     26  H           0     130.781 127.638 132.918  0.00  0.00     0.161 HD
ATOM     27  H           0     132.017 127.209 133.973  0.00  0.00     0.161 HD
ATOM     28  O           0     133.482 129.073 133.353  0.00  0.00    -0.239 OA
ENDBRANCH  23  24
ENDBRANCH  22  23
ENDBRANCH   6  22
BRANCH  18  29
ATOM     29  O           0     133.511 134.017 135.643  0.00  0.00    -0.362 OA
ATOM     30  H           0     133.156 133.385 136.283  0.00  0.00     0.213 HD
ENDBRANCH  18  29
BRANCH  18  31
ATOM     31  O           0     133.592 132.829 133.619  0.00  0.00    -0.362 OA
ATOM     32  H           0     133.204 132.837 132.733  0.00  0.00     0.213 HD
ENDBRANCH  18  31
TORSDOF 5
ENDMDL
MODEL 9
REMARK VINA RESULT:      -6.2      3.440      4.804
REMARK  5 active torsions:
REMARK  status: ('A' for Active; 'I' for Inactive)
REMARK    1  A    between atoms: C_6  and  C_7 
REMARK    2  A    between atoms: C_7  and  O_8 
REMARK    3  A    between atoms: O_8  and  C_9 
REMARK       I    between atoms: C_9  and  N_10 
REMARK    4  A    between atoms: C_23  and  O_24 
REMARK    5  A    between atoms: C_23  and  O_25 
ROOT
ATOM      1  N           0     136.066 134.170 148.651  0.00  0.00    -0.235 N 
ATOM      2  H           0     135.202 134.543 148.887  0.00  0.00     0.174 HD
ATOM      3  H           0     136.875 134.681 148.814  0.00  0.00     0.174 HD
ATOM      4  C           0     136.141 132.982 148.120  0.00  0.00     0.672 C 
ATOM      5  N           0     135.017 132.213 147.873  0.00  0.00    -0.218 N 
ATOM      6  C           0     135.065 131.251 146.776  0.00  0.00     0.151 C 
ATOM      7  C           0     136.280 130.347 146.844  0.00  0.00     0.180 C 
ATOM      8  N           0     136.061 129.315 147.879  0.00  0.00    -0.216 N 
ATOM      9  C           0     137.249 129.133 148.543  0.00  0.00     0.670 C 
ATOM     10  N           0     137.539 128.080 149.254  0.00  0.00    -0.235 N 
ATOM     11  H           0     136.893 127.361 149.339  0.00  0.00     0.174 HD
ATOM     12  H           0     138.399 128.016 149.697  0.00  0.00     0.174 HD
ATOM     13  C           0     137.552 131.049 147.292  0.00  0.00     0.217 C 
ATOM     14  N           0     138.096 130.199 148.365  0.00  0.00    -0.191 N 
ATOM     15  N           0     137.337 132.416 147.765  0.00  0.00    -0.183 N 
ATOM     16  C           0     138.664 133.058 147.718  0.00  0.00     0.150 C 
ATOM     17  C           0     139.314 132.501 146.428  0.00  0.00     0.093 C 
ATOM     18  C           0     138.576 131.167 146.150  0.00  0.00     0.209 C 
ATOM     19  H           0     134.219 132.310 148.415  0.00  0.00     0.178 HD
ATOM     20  H           0     135.228 128.849 148.058  0.00  0.00     0.178 HD
ATOM     21  H           0     138.914 130.363 148.859  0.00  0.00     0.180 HD
ENDROOT
BRANCH   6  22
ATOM     22  C           0     135.092 132.015 145.451  0.00  0.00     0.208 C 
BRANCH  22  23
ATOM     23  O           0     134.915 131.084 144.351  0.00  0.00    -0.302 OA
BRANCH  23  24
ATOM     24  C           0     134.932 131.531 143.081  0.00  0.00     0.358 C 
ATOM     25  N           0     133.784 131.618 142.381  0.00  0.00    -0.346 N 
ATOM     26  H           0     132.944 131.358 142.793  0.00  0.00     0.161 HD
ATOM     27  H           0     133.796 131.939 141.466  0.00  0.00     0.161 HD
ATOM     28  O           0     135.984 131.857 142.566  0.00  0.00    -0.239 OA
ENDBRANCH  23  24
ENDBRANCH  22  23
ENDBRANCH   6  22
BRANCH  18  29
ATOM     29  O           0     139.495 130.074 146.182  0.00  0.00    -0.362 OA
ATOM     30  H           0     140.384 130.455 146.148  0.00  0.00     0.213 HD
ENDBRANCH  18  29
BRANCH  18  31
ATOM     31  O           0     137.908 131.221 144.887  0.00  0.00    -0.362 OA
ATOM     32  H           0     137.872 132.153 144.630  0.00  0.00     0.213 HD
ENDBRANCH  18  31
TORSDOF 5
ENDMDL
