# created with PyMOL 2.3.4
@<TRIPOS>MOLECULE
ligand_out_0001
28 30 1                 
SMALL
USER_CHARGES
@<TRIPOS>ATOM
1	   N	135.513	132.696	147.115	N.3	1	UNK0	-0.235	
2	   N	136.780	134.446	146.184	N.3	1	UNK0	-0.218	
3	   N	136.238	136.100	143.644	N.3	1	UNK0	-0.216	
4	   N	134.291	136.776	142.481	N.3	1	UNK0	-0.235	
5	   N	134.675	134.534	143.130	N.3	1	UNK0	-0.191	
6	   N	135.559	133.023	144.798	N.3	1	UNK0	-0.183	
7	   C	135.930	133.359	146.074	C.3	1	UNK0	0.672	
8	   C	137.676	134.739	145.069	C.3	1	UNK0	0.150	
9	   C	136.951	134.810	143.740	C.3	1	UNK0	0.180	
10	   C	135.023	135.859	143.050	C.3	1	UNK0	0.670	
11	   C	135.853	133.771	143.575	C.3	1	UNK0	0.217	
12	   C	134.840	131.815	144.353	C.3	1	UNK0	0.150	
13	   C	135.548	131.409	143.039	C.3	1	UNK0	0.093	
14	   C	136.217	132.710	142.524	C.3	1	UNK0	0.209	
15	   C	138.742	133.645	144.991	C.2	1	UNK0	0.192	
16	   O	135.692	133.068	141.244	O.2	1	UNK0	-0.362	
17	   O	137.635	132.547	142.454	O.2	1	UNK0	-0.362	
18	   O	139.740	134.017	144.039	O.2	1	UNK0	-0.399	
19	   H	135.799	132.958	148.004	 H	1	UNK0	0.174	
20	   H	134.914	131.941	147.002	 H	1	UNK0	0.174	
21	   H	134.596	137.696	142.459	 H	1	UNK0	0.174	
22	   H	133.441	136.537	142.079	 H	1	UNK0	0.174	
23	   H	136.780	134.997	146.982	 H	1	UNK0	0.178	
24	   H	136.566	136.961	143.944	 H	1	UNK0	0.178	
25	   H	133.803	134.163	142.924	 H	1	UNK0	0.180	
26	   H	135.554	132.243	140.758	 H	1	UNK0	0.213	
27	   H	138.016	133.112	143.141	 H	1	UNK0	0.213	
28	   H	140.514	134.304	144.542	 H	1	UNK0	0.209	
@<TRIPOS>BOND
1 1 7 1
2 1 19 1
3 1 20 1
4 2 8 1
5 2 23 1
6 3 10 1
7 3 24 1
8 4 21 1
9 4 22 1
10 5 25 1
11 6 12 1
12 2 7 1
13 6 7 1
14 8 9 1
15 8 15 1
16 3 9 1
17 9 11 1
18 4 10 1
19 5 10 1
20 5 11 1
21 6 11 1
22 11 14 1
23 12 13 1
24 13 14 1
25 14 16 2
26 14 17 2
27 15 18 2
28 16 26 1
29 17 27 1
30 18 28 1
@<TRIPOS>SUBSTRUCTURE
1	UNK0	1	GROUP	1 ****	UNK
