# created with PyMOL 2.3.4
@<TRIPOS>MOLECULE
ligand_out_0001
80 86 1                 
SMALL
USER_CHARGES
@<TRIPOS>ATOM
1	   N	137.537	133.000	145.375	N.pl3	1	UNK0	-0.361	
2	   N	139.379	135.642	150.584	N.3	1	UNK0	-0.349	
3	   N	135.088	130.877	149.563	N.3	1	UNK0	-0.353	
4	   N	133.855	135.051	139.636	N.pl3	1	UNK0	-0.337	
5	   N	130.979	134.911	135.787	N.3	1	UNK0	-0.218	
6	   N	130.358	132.722	135.195	N.3	1	UNK0	-0.235	
7	   N	131.431	134.108	133.645	N.3	1	UNK0	-0.183	
8	   N	130.960	136.025	132.246	N.3	1	UNK0	-0.191	
9	   N	131.142	137.432	134.021	N.3	1	UNK0	-0.216	
10	   N	130.008	138.183	132.086	N.3	1	UNK0	-0.235	
11	   C	138.828	133.006	145.765	C.2	1	UNK0	0.217	
12	   C	139.306	134.019	146.772	C.3	1	UNK0	0.103	
13	   C	140.359	133.380	147.678	C.3	1	UNK0	0.009	
14	   C	141.061	134.468	148.493	C.3	1	UNK0	0.002	
15	   C	141.125	134.045	149.962	C.3	1	UNK0	0.020	
16	   C	140.761	135.235	150.852	C.3	1	UNK0	0.129	
17	   C	138.940	136.964	150.588	C.3	1	UNK0	0.042	
18	   C	139.634	138.150	150.825	C.3	1	UNK0	0.032	
19	   C	137.583	137.025	150.300	C.3	1	UNK0	-0.016	
20	   C	138.974	139.361	150.772	C.3	1	UNK0	0.028	
21	   C	137.623	139.408	150.484	C.3	1	UNK0	0.081	
22	   C	136.927	138.236	150.248	C.3	1	UNK0	0.036	
23	   C	137.117	135.602	150.093	C.3	1	UNK0	0.024	
24	   C	138.365	134.770	150.295	C.3	1	UNK0	0.024	
25	   C	136.049	135.233	151.125	C.3	1	UNK0	0.027	
26	   C	136.575	135.416	148.674	C.3	1	UNK0	0.027	
27	   C	138.460	133.424	150.210	C.3	1	UNK0	0.026	
28	   C	137.315	132.654	149.922	C.3	1	UNK0	0.004	
29	   C	137.451	131.386	149.446	C.3	1	UNK0	0.026	
30	   C	136.310	130.610	149.182	C.3	1	UNK0	0.024	
31	   C	136.267	129.314	148.398	C.3	1	UNK0	0.024	
32	   C	134.804	128.933	148.440	C.3	1	UNK0	-0.016	
33	   C	136.728	129.530	146.956	C.3	1	UNK0	0.027	
34	   C	137.122	128.248	149.087	C.3	1	UNK0	0.027	
35	   C	134.176	129.949	149.167	C.3	1	UNK0	0.041	
36	   C	134.086	127.880	147.933	C.3	1	UNK0	0.036	
37	   C	132.790	129.872	149.369	C.3	1	UNK0	0.032	
38	   C	134.735	132.066	150.343	C.3	1	UNK0	0.156	
39	   C	132.077	128.810	148.856	C.3	1	UNK0	0.028	
40	   C	132.716	127.814	148.140	C.3	1	UNK0	0.081	
41	   C	137.072	132.015	144.396	C.3	1	UNK0	0.122	
42	   C	135.555	131.858	144.511	C.3	1	UNK0	0.020	
43	   C	134.871	133.132	144.012	C.3	1	UNK0	0.002	
44	   C	134.710	133.064	142.493	C.3	1	UNK0	0.002	
45	   C	134.330	134.446	141.957	C.3	1	UNK0	0.020	
46	   C	133.360	134.290	140.785	C.3	1	UNK0	0.125	
47	   C	133.323	134.850	138.414	C.2	1	UNK0	0.360	
48	   C	133.388	135.169	136.012	C.2	1	UNK0	0.208	
49	   C	132.076	135.866	135.644	C.3	1	UNK0	0.151	
50	   C	130.899	133.865	134.885	C.3	1	UNK0	0.672	
51	   C	131.937	135.388	133.144	C.3	1	UNK0	0.217	
52	   C	131.673	133.142	132.559	C.3	1	UNK0	0.150	
53	   C	132.193	136.415	134.236	C.3	1	UNK0	0.180	
54	   C	133.218	135.044	132.366	C.3	1	UNK0	0.209	
55	   C	130.663	137.269	132.744	C.3	1	UNK0	0.670	
56	   C	133.047	133.553	131.977	C.3	1	UNK0	0.093	
57	   O	139.604	132.196	145.304	O.2	1	UNK0	-0.274	
58	   O	135.529	140.777	151.124	O.3	1	UNK0	-0.591	
59	   O	137.656	141.922	151.075	O.3	1	UNK0	-0.591	
60	   O	136.592	141.260	149.009	O.3	1	UNK0	-0.591	
61	   O	131.195	126.931	146.249	O.3	1	UNK0	-0.591	
62	   O	132.740	125.382	147.275	O.3	1	UNK0	-0.591	
63	   O	130.792	126.130	148.493	O.3	1	UNK0	-0.591	
64	   O	132.432	134.037	138.266	O.co2	1	UNK0	-0.239	
65	   O	133.778	135.550	137.358	O.2	1	UNK0	-0.302	
66	   O	133.327	135.855	131.195	O.2	1	UNK0	-0.362	
67	   O	134.367	135.212	133.199	O.2	1	UNK0	-0.362	
68	   S	136.788	140.958	150.418	S.3	1	UNK0	0.137	
69	   S	131.791	126.463	147.490	S.3	1	UNK0	0.137	
70	   H	136.916	133.648	145.744	 H	1	UNK0	0.162	
71	   H	134.566	135.700	139.754	 H	1	UNK0	0.164	
72	   H	130.325	135.009	136.496	 H	1	UNK0	0.178	
73	   H	129.995	132.582	136.084	 H	1	UNK0	0.174	
74	   H	130.315	132.010	134.537	 H	1	UNK0	0.174	
75	   H	130.844	138.092	134.665	 H	1	UNK0	0.178	
76	   H	129.830	139.044	132.497	 H	1	UNK0	0.174	
77	   H	129.696	138.003	131.185	 H	1	UNK0	0.174	
78	   H	130.592	135.633	131.439	 H	1	UNK0	0.180	
79	   H	133.405	136.770	131.496	 H	1	UNK0	0.213	
80	   H	134.499	136.165	133.303	 H	1	UNK0	0.213	
@<TRIPOS>BOND
1 1 11 1
2 1 41 1
3 1 70 1
4 2 17 1
5 2 24 1
6 3 38 1
7 4 47 1
8 4 71 1
9 5 50 1
10 5 72 1
11 6 73 1
12 6 74 1
13 7 51 1
14 7 52 1
15 8 55 1
16 8 78 1
17 9 55 1
18 9 75 1
19 10 76 1
20 10 77 1
21 11 12 1
22 11 57 2
23 12 13 1
24 13 14 1
25 14 15 1
26 15 16 1
27 2 16 1
28 17 18 1
29 17 19 1
30 18 20 1
31 19 22 1
32 19 23 1
33 20 21 1
34 21 22 1
35 21 68 1
36 23 24 1
37 23 25 1
38 23 26 1
39 24 27 1
40 27 28 1
41 28 29 1
42 29 30 1
43 3 30 1
44 30 31 1
45 31 32 1
46 31 33 1
47 31 34 1
48 32 35 1
49 32 36 1
50 3 35 1
51 35 37 1
52 36 40 1
53 37 39 1
54 39 40 1
55 40 69 1
56 41 42 1
57 42 43 1
58 43 44 1
59 44 45 1
60 45 46 1
61 4 46 1
62 47 64 2
63 47 65 2
64 48 49 1
65 5 49 1
66 49 53 1
67 6 50 1
68 7 50 1
69 8 51 1
70 51 53 1
71 51 54 1
72 52 56 1
73 9 53 1
74 54 56 1
75 54 66 2
76 54 67 2
77 10 55 1
78 48 65 2
79 66 79 1
80 67 80 1
81 58 68 1
82 59 68 1
83 60 68 1
84 61 69 1
85 62 69 1
86 63 69 1
@<TRIPOS>SUBSTRUCTURE
1	UNK0	1	GROUP	1 ****	UNK
