# created with PyMOL 2.3.4
@<TRIPOS>MOLECULE
ligand_out_0001
32 35 1                 
SMALL
USER_CHARGES
@<TRIPOS>ATOM
1	   N	135.753	133.235	141.800	N.3	1	UNK0	-0.235	
2	   N	137.753	134.361	142.299	N.pl3	1	UNK0	-0.200	
3	   N	137.239	132.324	143.379	N.3	1	UNK0	-0.211	
4	   C	136.872	133.304	142.465	C.3	1	UNK0	0.670	
5	   C	138.384	134.927	143.503	C.2	1	UNK0	0.244	
6	   C	138.960	133.775	144.332	C.3	1	UNK0	0.101	
7	   C	137.839	132.771	144.631	C.3	1	UNK0	0.119	
8	   C	136.786	133.483	145.492	C.2	1	UNK0	0.243	
9	   C	139.528	134.298	145.650	C.2	1	UNK0	0.177	
10	   C	137.505	133.949	146.763	C.3	1	UNK0	0.311	
11	   C	140.128	133.118	146.428	C.3	1	UNK0	0.134	
12	   C	138.980	132.141	146.743	C.2	1	UNK0	0.198	
13	   C	138.404	131.603	145.438	C.2	1	UNK0	0.182	
14	   C	140.765	133.622	147.725	C.2	1	UNK0	0.207	
15	   O	138.510	134.898	146.444	O.2	1	UNK0	-0.322	
16	   O	137.984	132.832	147.491	O.2	1	UNK0	-0.319	
17	   O	141.113	132.461	145.628	O.2	1	UNK0	-0.382	
18	   O	140.921	135.040	147.658	O.2	1	UNK0	-0.398	
19	   O	137.362	130.669	145.723	O.2	1	UNK0	-0.390	
20	   O	139.435	135.818	143.123	O.2	1	UNK0	-0.376	
21	   O	136.541	134.601	147.593	O.2	1	UNK0	-0.341	
22	   O	136.256	134.608	144.787	O.2	1	UNK0	-0.385	
23	   H	135.519	133.935	141.170	 H	1	UNK0	0.174	
24	   H	135.156	132.482	141.932	 H	1	UNK0	0.174	
25	   H	137.949	134.715	141.418	 H	1	UNK0	0.180	
26	   H	137.106	131.383	143.189	 H	1	UNK0	0.178	
27	   H	141.976	132.727	145.971	 H	1	UNK0	0.210	
28	   H	141.125	135.342	148.554	 H	1	UNK0	0.209	
29	   H	137.356	130.028	144.999	 H	1	UNK0	0.210	
30	   H	140.267	135.341	143.252	 H	1	UNK0	0.212	
31	   H	136.165	133.923	148.169	 H	1	UNK0	0.215	
32	   H	135.384	134.788	145.162	 H	1	UNK0	0.210	
@<TRIPOS>BOND
1 1 4 1
2 1 23 1
3 1 24 1
4 2 5 1
5 2 25 1
6 3 26 1
7 2 4 1
8 3 4 1
9 5 6 1
10 5 20 2
11 6 7 1
12 6 9 1
13 3 7 1
14 7 8 1
15 7 13 1
16 8 10 1
17 8 22 2
18 9 11 1
19 9 15 2
20 10 16 2
21 10 21 2
22 11 12 1
23 11 14 1
24 11 17 2
25 12 13 1
26 13 19 2
27 14 18 2
28 10 15 2
29 12 16 2
30 17 27 1
31 18 28 1
32 19 29 1
33 20 30 1
34 21 31 1
35 22 32 1
@<TRIPOS>SUBSTRUCTURE
1	UNK0	1	GROUP	1 ****	UNK
