# created with PyMOL 2.3.4
@<TRIPOS>MOLECULE
ligand_out_0001
32 34 1                 
SMALL
USER_CHARGES
@<TRIPOS>ATOM
1	   N	135.506	132.665	147.097	N.3	1	UNK0	-0.235	
2	   N	136.792	134.402	146.166	N.3	1	UNK0	-0.218	
3	   N	136.250	136.085	143.644	N.3	1	UNK0	-0.216	
4	   N	134.303	136.801	142.507	N.3	1	UNK0	-0.235	
5	   N	134.657	134.548	143.134	N.3	1	UNK0	-0.191	
6	   N	135.534	133.010	144.782	N.3	1	UNK0	-0.183	
7	   N	140.765	134.013	147.943	N.pl3	1	UNK0	-0.346	
8	   C	135.923	133.330	146.056	C.3	1	UNK0	0.672	
9	   C	137.681	134.690	145.045	C.3	1	UNK0	0.151	
10	   C	136.944	134.783	143.724	C.3	1	UNK0	0.180	
11	   C	135.026	135.869	143.061	C.3	1	UNK0	0.670	
12	   C	135.827	133.764	143.562	C.3	1	UNK0	0.217	
13	   C	134.791	131.818	144.335	C.3	1	UNK0	0.150	
14	   C	135.480	131.412	143.009	C.3	1	UNK0	0.093	
15	   C	136.164	132.705	142.498	C.3	1	UNK0	0.209	
16	   C	138.729	133.579	144.948	C.2	1	UNK0	0.208	
17	   C	139.901	133.464	147.066	C.2	1	UNK0	0.358	
18	   O	139.861	133.906	145.795	O.2	1	UNK0	-0.302	
19	   O	139.159	132.571	147.423	O.co2	1	UNK0	-0.239	
20	   O	135.631	133.081	141.227	O.2	1	UNK0	-0.362	
21	   O	137.578	132.520	142.412	O.2	1	UNK0	-0.362	
22	   H	135.805	132.915	147.985	 H	1	UNK0	0.174	
23	   H	134.894	131.920	146.983	 H	1	UNK0	0.174	
24	   H	134.623	137.716	142.489	 H	1	UNK0	0.174	
25	   H	133.445	136.579	142.112	 H	1	UNK0	0.174	
26	   H	136.809	134.948	146.968	 H	1	UNK0	0.178	
27	   H	136.596	136.939	143.949	 H	1	UNK0	0.178	
28	   H	133.777	134.193	142.934	 H	1	UNK0	0.180	
29	   H	141.358	134.727	147.659	 H	1	UNK0	0.161	
30	   H	140.794	133.695	148.859	 H	1	UNK0	0.161	
31	   H	136.048	132.508	140.569	 H	1	UNK0	0.213	
32	   H	137.734	131.565	142.393	 H	1	UNK0	0.213	
@<TRIPOS>BOND
1 1 8 1
2 1 22 1
3 1 23 1
4 2 9 1
5 2 26 1
6 3 11 1
7 3 27 1
8 4 24 1
9 4 25 1
10 5 28 1
11 6 13 1
12 7 29 1
13 7 30 1
14 2 8 1
15 6 8 1
16 9 10 1
17 9 16 1
18 3 10 1
19 10 12 1
20 4 11 1
21 5 11 1
22 5 12 1
23 6 12 1
24 12 15 1
25 13 14 1
26 14 15 1
27 15 20 2
28 15 21 2
29 16 18 2
30 7 17 1
31 17 19 2
32 17 18 2
33 20 31 1
34 21 32 1
@<TRIPOS>SUBSTRUCTURE
1	UNK0	1	GROUP	1 ****	UNK
