MODEL 1
REMARK VINA RESULT:      -8.0      0.000      0.000
REMARK  5 active torsions:
REMARK  status: ('A' for Active; 'I' for Inactive)
REMARK    1  A    between atoms: C_6  and  C_7 
REMARK    2  A    between atoms: C_7  and  O_8 
REMARK    3  A    between atoms: O_8  and  C_9 
REMARK       I    between atoms: C_9  and  N_10 
REMARK    4  A    between atoms: C_23  and  O_24 
REMARK    5  A    between atoms: C_23  and  O_25 
ROOT
ATOM      1  N           0     135.506 132.665 147.097  0.00  0.00    -0.235 N 
ATOM      2  H           0     135.805 132.915 147.985  0.00  0.00     0.174 HD
ATOM      3  H           0     134.894 131.920 146.983  0.00  0.00     0.174 HD
ATOM      4  C           0     135.923 133.330 146.056  0.00  0.00     0.672 C 
ATOM      5  N           0     136.792 134.402 146.166  0.00  0.00    -0.218 N 
ATOM      6  C           0     137.681 134.690 145.045  0.00  0.00     0.151 C 
ATOM      7  C           0     136.944 134.783 143.724  0.00  0.00     0.180 C 
ATOM      8  N           0     136.250 136.085 143.644  0.00  0.00    -0.216 N 
ATOM      9  C           0     135.026 135.869 143.061  0.00  0.00     0.670 C 
ATOM     10  N           0     134.303 136.801 142.507  0.00  0.00    -0.235 N 
ATOM     11  H           0     134.623 137.716 142.489  0.00  0.00     0.174 HD
ATOM     12  H           0     133.445 136.579 142.112  0.00  0.00     0.174 HD
ATOM     13  C           0     135.827 133.764 143.562  0.00  0.00     0.217 C 
ATOM     14  N           0     134.657 134.548 143.134  0.00  0.00    -0.191 N 
ATOM     15  N           0     135.534 133.010 144.782  0.00  0.00    -0.183 N 
ATOM     16  C           0     134.791 131.818 144.335  0.00  0.00     0.150 C 
ATOM     17  C           0     135.480 131.412 143.009  0.00  0.00     0.093 C 
ATOM     18  C           0     136.164 132.705 142.498  0.00  0.00     0.209 C 
ATOM     19  H           0     136.809 134.948 146.968  0.00  0.00     0.178 HD
ATOM     20  H           0     136.596 136.939 143.949  0.00  0.00     0.178 HD
ATOM     21  H           0     133.777 134.193 142.934  0.00  0.00     0.180 HD
ENDROOT
BRANCH   6  22
ATOM     22  C           0     138.729 133.579 144.948  0.00  0.00     0.208 C 
BRANCH  22  23
ATOM     23  O           0     139.861 133.906 145.795  0.00  0.00    -0.302 OA
BRANCH  23  24
ATOM     24  C           0     139.901 133.464 147.066  0.00  0.00     0.358 C 
ATOM     25  N           0     140.765 134.013 147.943  0.00  0.00    -0.346 N 
ATOM     26  H           0     141.358 134.727 147.659  0.00  0.00     0.161 HD
ATOM     27  H           0     140.794 133.695 148.859  0.00  0.00     0.161 HD
ATOM     28  O           0     139.159 132.571 147.423  0.00  0.00    -0.239 OA
ENDBRANCH  23  24
ENDBRANCH  22  23
ENDBRANCH   6  22
BRANCH  18  29
ATOM     29  O           0     135.631 133.081 141.227  0.00  0.00    -0.362 OA
ATOM     30  H           0     136.048 132.508 140.569  0.00  0.00     0.213 HD
ENDBRANCH  18  29
BRANCH  18  31
ATOM     31  O           0     137.578 132.520 142.412  0.00  0.00    -0.362 OA
ATOM     32  H           0     137.734 131.565 142.393  0.00  0.00     0.213 HD
ENDBRANCH  18  31
TORSDOF 5
ENDMDL
MODEL 2
REMARK VINA RESULT:      -7.1      1.755      2.179
REMARK  5 active torsions:
REMARK  status: ('A' for Active; 'I' for Inactive)
REMARK    1  A    between atoms: C_6  and  C_7 
REMARK    2  A    between atoms: C_7  and  O_8 
REMARK    3  A    between atoms: O_8  and  C_9 
REMARK       I    between atoms: C_9  and  N_10 
REMARK    4  A    between atoms: C_23  and  O_24 
REMARK    5  A    between atoms: C_23  and  O_25 
ROOT
ATOM      1  N           0     135.953 134.691 146.933  0.00  0.00    -0.235 N 
ATOM      2  H           0     136.303 135.566 147.162  0.00  0.00     0.174 HD
ATOM      3  H           0     135.573 134.125 147.624  0.00  0.00     0.174 HD
ATOM      4  C           0     135.989 134.276 145.698  0.00  0.00     0.672 C 
ATOM      5  N           0     136.516 135.048 144.677  0.00  0.00    -0.218 N 
ATOM      6  C           0     137.094 134.366 143.523  0.00  0.00     0.151 C 
ATOM      7  C           0     136.161 133.328 142.930  0.00  0.00     0.180 C 
ATOM      8  N           0     135.117 134.010 142.136  0.00  0.00    -0.216 N 
ATOM      9  C           0     133.932 133.353 142.361  0.00  0.00     0.670 C 
ATOM     10  N           0     132.891 133.432 141.580  0.00  0.00    -0.235 N 
ATOM     11  H           0     132.926 133.981 140.780  0.00  0.00     0.174 HD
ATOM     12  H           0     132.084 132.941 141.797  0.00  0.00     0.174 HD
ATOM     13  C           0     135.377 132.535 143.963  0.00  0.00     0.217 C 
ATOM     14  N           0     133.977 132.604 143.510  0.00  0.00    -0.191 N 
ATOM     15  N           0     135.512 133.046 145.327  0.00  0.00    -0.183 N 
ATOM     16  C           0     135.085 131.940 146.202  0.00  0.00     0.150 C 
ATOM     17  C           0     135.642 130.670 145.515  0.00  0.00     0.093 C 
ATOM     18  C           0     135.833 131.067 144.029  0.00  0.00     0.209 C 
ATOM     19  H           0     136.501 136.016 144.727  0.00  0.00     0.178 HD
ATOM     20  H           0     135.245 134.780 141.561  0.00  0.00     0.178 HD
ATOM     21  H           0     133.218 132.189 143.948  0.00  0.00     0.180 HD
ENDROOT
BRANCH   6  22
ATOM     22  C           0     138.389 133.676 143.955  0.00  0.00     0.208 C 
BRANCH  22  23
ATOM     23  O           0     138.756 134.123 145.286  0.00  0.00    -0.302 OA
BRANCH  23  24
ATOM     24  C           0     139.358 133.274 146.140  0.00  0.00     0.358 C 
ATOM     25  N           0     138.985 131.979 146.179  0.00  0.00    -0.346 N 
ATOM     26  H           0     138.283 131.659 145.591  0.00  0.00     0.161 HD
ATOM     27  H           0     139.419 131.367 146.794  0.00  0.00     0.161 HD
ATOM     28  O           0     140.238 133.675 146.876  0.00  0.00    -0.239 OA
ENDBRANCH  23  24
ENDBRANCH  22  23
ENDBRANCH   6  22
BRANCH  18  29
ATOM     29  O           0     135.019 130.249 143.186  0.00  0.00    -0.362 OA
ATOM     30  H           0     135.620 129.756 142.611  0.00  0.00     0.213 HD
ENDBRANCH  18  29
BRANCH  18  31
ATOM     31  O           0     137.208 130.957 143.656  0.00  0.00    -0.362 OA
ATOM     32  H           0     137.660 130.511 144.385  0.00  0.00     0.213 HD
ENDBRANCH  18  31
TORSDOF 5
ENDMDL
MODEL 3
REMARK VINA RESULT:      -7.0      3.002      4.688
REMARK  5 active torsions:
REMARK  status: ('A' for Active; 'I' for Inactive)
REMARK    1  A    between atoms: C_6  and  C_7 
REMARK    2  A    between atoms: C_7  and  O_8 
REMARK    3  A    between atoms: O_8  and  C_9 
REMARK       I    between atoms: C_9  and  N_10 
REMARK    4  A    between atoms: C_23  and  O_24 
REMARK    5  A    between atoms: C_23  and  O_25 
ROOT
ATOM      1  N           0     139.072 130.446 145.947  0.00  0.00    -0.235 N 
ATOM      2  H           0     139.237 129.596 146.384  0.00  0.00     0.174 HD
ATOM      3  H           0     139.811 130.948 145.569  0.00  0.00     0.174 HD
ATOM      4  C           0     137.857 130.913 145.864  0.00  0.00     0.672 C 
ATOM      5  N           0     136.770 130.233 146.384  0.00  0.00    -0.218 N 
ATOM      6  C           0     135.614 131.009 146.823  0.00  0.00     0.151 C 
ATOM      7  C           0     135.131 131.986 145.768  0.00  0.00     0.180 C 
ATOM      8  N           0     134.376 131.249 144.734  0.00  0.00    -0.216 N 
ATOM      9  C           0     134.706 131.790 143.515  0.00  0.00     0.670 C 
ATOM     10  N           0     133.990 131.654 142.434  0.00  0.00    -0.235 N 
ATOM     11  H           0     133.166 131.143 142.461  0.00  0.00     0.174 HD
ATOM     12  H           0     134.282 132.063 141.605  0.00  0.00     0.174 HD
ATOM     13  C           0     136.248 132.664 144.992  0.00  0.00     0.217 C 
ATOM     14  N           0     135.884 132.492 143.575  0.00  0.00    -0.191 N 
ATOM     15  N           0     137.576 132.111 145.262  0.00  0.00    -0.183 N 
ATOM     16  C           0     138.528 133.139 144.803  0.00  0.00     0.150 C 
ATOM     17  C           0     137.866 134.480 145.204  0.00  0.00     0.093 C 
ATOM     18  C           0     136.354 134.162 145.326  0.00  0.00     0.209 C 
ATOM     19  H           0     136.775 129.266 146.454  0.00  0.00     0.178 HD
ATOM     20  H           0     133.758 130.517 144.886  0.00  0.00     0.178 HD
ATOM     21  H           0     136.388 132.822 142.816  0.00  0.00     0.180 HD
ENDROOT
BRANCH   6  22
ATOM     22  C           0     135.994 131.791 148.082  0.00  0.00     0.208 C 
BRANCH  22  23
ATOM     23  O           0     134.799 132.350 148.685  0.00  0.00    -0.302 OA
BRANCH  23  24
ATOM     24  C           0     133.910 131.542 149.294  0.00  0.00     0.358 C 
ATOM     25  N           0     132.593 131.680 149.046  0.00  0.00    -0.346 N 
ATOM     26  H           0     132.284 132.362 148.428  0.00  0.00     0.161 HD
ATOM     27  H           0     131.953 131.098 149.485  0.00  0.00     0.161 HD
ATOM     28  O           0     134.297 130.688 150.068  0.00  0.00    -0.239 OA
ENDBRANCH  23  24
ENDBRANCH  22  23
ENDBRANCH   6  22
BRANCH  18  29
ATOM     29  O           0     135.605 134.941 144.391  0.00  0.00    -0.362 OA
ATOM     30  H           0     134.777 135.182 144.829  0.00  0.00     0.213 HD
ENDBRANCH  18  29
BRANCH  18  31
ATOM     31  O           0     135.899 134.407 146.658  0.00  0.00    -0.362 OA
ATOM     32  H           0     135.095 133.883 146.780  0.00  0.00     0.213 HD
ENDBRANCH  18  31
TORSDOF 5
ENDMDL
MODEL 4
REMARK VINA RESULT:      -6.9      1.910      4.736
REMARK  5 active torsions:
REMARK  status: ('A' for Active; 'I' for Inactive)
REMARK    1  A    between atoms: C_6  and  C_7 
REMARK    2  A    between atoms: C_7  and  O_8 
REMARK    3  A    between atoms: O_8  and  C_9 
REMARK       I    between atoms: C_9  and  N_10 
REMARK    4  A    between atoms: C_23  and  O_24 
REMARK    5  A    between atoms: C_23  and  O_25 
ROOT
ATOM      1  N           0     135.423 135.237 143.028  0.00  0.00    -0.235 N 
ATOM      2  H           0     134.483 135.463 143.090  0.00  0.00     0.174 HD
ATOM      3  H           0     135.891 135.333 142.183  0.00  0.00     0.174 HD
ATOM      4  C           0     136.062 134.807 144.080  0.00  0.00     0.672 C 
ATOM      5  N           0     135.442 134.657 145.308  0.00  0.00    -0.218 N 
ATOM      6  C           0     135.958 133.645 146.225  0.00  0.00     0.151 C 
ATOM      7  C           0     137.456 133.758 146.436  0.00  0.00     0.180 C 
ATOM      8  N           0     137.734 134.883 147.353  0.00  0.00    -0.216 N 
ATOM      9  C           0     138.855 135.528 146.891  0.00  0.00     0.670 C 
ATOM     10  N           0     139.597 136.318 147.614  0.00  0.00    -0.235 N 
ATOM     11  H           0     139.368 136.481 148.543  0.00  0.00     0.174 HD
ATOM     12  H           0     140.377 136.743 147.225  0.00  0.00     0.174 HD
ATOM     13  C           0     138.235 134.110 145.179  0.00  0.00     0.217 C 
ATOM     14  N           0     139.098 135.237 145.572  0.00  0.00    -0.191 N 
ATOM     15  N           0     137.390 134.470 144.041  0.00  0.00    -0.183 N 
ATOM     16  C           0     138.254 134.333 142.854  0.00  0.00     0.150 C 
ATOM     17  C           0     139.113 133.079 143.148  0.00  0.00     0.093 C 
ATOM     18  C           0     139.100 132.935 144.691  0.00  0.00     0.209 C 
ATOM     19  H           0     134.684 135.210 145.553  0.00  0.00     0.178 HD
ATOM     20  H           0     137.219 135.122 148.140  0.00  0.00     0.178 HD
ATOM     21  H           0     139.732 135.693 144.997  0.00  0.00     0.180 HD
ENDROOT
BRANCH   6  22
ATOM     22  C           0     135.643 132.259 145.659  0.00  0.00     0.208 C 
BRANCH  22  23
ATOM     23  O           0     134.802 132.395 144.484  0.00  0.00    -0.302 OA
BRANCH  23  24
ATOM     24  C           0     134.963 131.560 143.440  0.00  0.00     0.358 C 
ATOM     25  N           0     136.159 130.980 143.219  0.00  0.00    -0.346 N 
ATOM     26  H           0     136.905 131.164 143.812  0.00  0.00     0.161 HD
ATOM     27  H           0     136.275 130.379 142.466  0.00  0.00     0.161 HD
ATOM     28  O           0     134.029 131.329 142.697  0.00  0.00    -0.239 OA
ENDBRANCH  23  24
ENDBRANCH  22  23
ENDBRANCH   6  22
BRANCH  18  29
ATOM     29  O           0     140.427 133.037 145.211  0.00  0.00    -0.362 OA
ATOM     30  H           0     140.822 132.156 145.143  0.00  0.00     0.213 HD
ENDBRANCH  18  29
BRANCH  18  31
ATOM     31  O           0     138.508 131.691 145.071  0.00  0.00    -0.362 OA
ATOM     32  H           0     137.797 131.899 145.693  0.00  0.00     0.213 HD
ENDBRANCH  18  31
TORSDOF 5
ENDMDL
MODEL 5
REMARK VINA RESULT:      -6.9      1.835      5.327
REMARK  5 active torsions:
REMARK  status: ('A' for Active; 'I' for Inactive)
REMARK    1  A    between atoms: C_6  and  C_7 
REMARK    2  A    between atoms: C_7  and  O_8 
REMARK    3  A    between atoms: O_8  and  C_9 
REMARK       I    between atoms: C_9  and  N_10 
REMARK    4  A    between atoms: C_23  and  O_24 
REMARK    5  A    between atoms: C_23  and  O_25 
ROOT
ATOM      1  N           0     136.762 135.523 143.546  0.00  0.00    -0.235 N 
ATOM      2  H           0     136.053 135.922 143.019  0.00  0.00     0.174 HD
ATOM      3  H           0     137.665 135.875 143.490  0.00  0.00     0.174 HD
ATOM      4  C           0     136.503 134.518 144.334  0.00  0.00     0.672 C 
ATOM      5  N           0     135.231 133.983 144.453  0.00  0.00    -0.218 N 
ATOM      6  C           0     135.104 132.572 144.805  0.00  0.00     0.151 C 
ATOM      7  C           0     135.916 132.201 146.031  0.00  0.00     0.180 C 
ATOM      8  N           0     135.212 132.674 147.242  0.00  0.00    -0.216 N 
ATOM      9  C           0     136.161 133.158 148.110  0.00  0.00     0.670 C 
ATOM     10  N           0     135.969 133.319 149.389  0.00  0.00    -0.235 N 
ATOM     11  H           0     135.112 133.092 149.783  0.00  0.00     0.174 HD
ATOM     12  H           0     136.683 133.666 149.946  0.00  0.00     0.174 HD
ATOM     13  C           0     137.273 132.881 146.107  0.00  0.00     0.217 C 
ATOM     14  N           0     137.336 133.450 147.463  0.00  0.00    -0.191 N 
ATOM     15  N           0     137.472 133.917 145.094  0.00  0.00    -0.183 N 
ATOM     16  C           0     138.930 134.127 145.031  0.00  0.00     0.150 C 
ATOM     17  C           0     139.528 132.707 145.189  0.00  0.00     0.093 C 
ATOM     18  C           0     138.428 131.884 145.905  0.00  0.00     0.209 C 
ATOM     19  H           0     134.446 134.533 144.307  0.00  0.00     0.178 HD
ATOM     20  H           0     134.255 132.649 147.396  0.00  0.00     0.178 HD
ATOM     21  H           0     138.082 133.945 147.837  0.00  0.00     0.180 HD
ENDROOT
BRANCH   6  22
ATOM     22  C           0     135.579 131.724 143.624  0.00  0.00     0.208 C 
BRANCH  22  23
ATOM     23  O           0     134.618 131.822 142.540  0.00  0.00    -0.302 OA
BRANCH  23  24
ATOM     24  C           0     134.651 132.876 141.703  0.00  0.00     0.358 C 
ATOM     25  N           0     135.753 133.116 140.965  0.00  0.00    -0.346 N 
ATOM     26  H           0     136.522 132.530 141.036  0.00  0.00     0.161 HD
ATOM     27  H           0     135.777 133.876 140.362  0.00  0.00     0.161 HD
ATOM     28  O           0     133.687 133.610 141.614  0.00  0.00    -0.239 OA
ENDBRANCH  23  24
ENDBRANCH  22  23
ENDBRANCH   6  22
BRANCH  18  29
ATOM     29  O           0     138.905 131.404 147.163  0.00  0.00    -0.362 OA
ATOM     30  H           0     138.507 130.533 147.299  0.00  0.00     0.213 HD
ENDBRANCH  18  29
BRANCH  18  31
ATOM     31  O           0     138.005 130.795 145.082  0.00  0.00    -0.362 OA
ATOM     32  H           0     137.276 130.360 145.546  0.00  0.00     0.213 HD
ENDBRANCH  18  31
TORSDOF 5
ENDMDL
MODEL 6
REMARK VINA RESULT:      -6.8      2.328      4.385
REMARK  5 active torsions:
REMARK  status: ('A' for Active; 'I' for Inactive)
REMARK    1  A    between atoms: C_6  and  C_7 
REMARK    2  A    between atoms: C_7  and  O_8 
REMARK    3  A    between atoms: O_8  and  C_9 
REMARK       I    between atoms: C_9  and  N_10 
REMARK    4  A    between atoms: C_23  and  O_24 
REMARK    5  A    between atoms: C_23  and  O_25 
ROOT
ATOM      1  N           0     135.288 135.286 143.152  0.00  0.00    -0.235 N 
ATOM      2  H           0     134.364 135.545 143.287  0.00  0.00     0.174 HD
ATOM      3  H           0     135.683 135.340 142.267  0.00  0.00     0.174 HD
ATOM      4  C           0     136.003 134.869 144.159  0.00  0.00     0.672 C 
ATOM      5  N           0     135.487 134.778 145.441  0.00  0.00    -0.218 N 
ATOM      6  C           0     136.051 133.779 146.344  0.00  0.00     0.151 C 
ATOM      7  C           0     137.564 133.849 146.421  0.00  0.00     0.180 C 
ATOM      8  N           0     137.955 134.992 147.272  0.00  0.00    -0.216 N 
ATOM      9  C           0     139.050 135.584 146.693  0.00  0.00     0.670 C 
ATOM     10  N           0     139.876 136.373 147.323  0.00  0.00    -0.235 N 
ATOM     11  H           0     139.734 136.572 148.262  0.00  0.00     0.174 HD
ATOM     12  H           0     140.631 136.758 146.853  0.00  0.00     0.174 HD
ATOM     13  C           0     138.241 134.135 145.091  0.00  0.00     0.217 C 
ATOM     14  N           0     139.169 135.244 145.369  0.00  0.00    -0.191 N 
ATOM     15  N           0     137.311 134.486 144.018  0.00  0.00    -0.183 N 
ATOM     16  C           0     138.064 134.284 142.766  0.00  0.00     0.150 C 
ATOM     17  C           0     138.906 133.012 143.028  0.00  0.00     0.093 C 
ATOM     18  C           0     139.024 132.917 144.571  0.00  0.00     0.209 C 
ATOM     19  H           0     134.771 135.363 145.731  0.00  0.00     0.178 HD
ATOM     20  H           0     137.518 135.273 148.092  0.00  0.00     0.178 HD
ATOM     21  H           0     139.764 135.661 144.726  0.00  0.00     0.180 HD
ENDROOT
BRANCH   6  22
ATOM     22  C           0     135.646 132.387 145.855  0.00  0.00     0.208 C 
BRANCH  22  23
ATOM     23  O           0     135.908 131.412 146.897  0.00  0.00    -0.302 OA
BRANCH  23  24
ATOM     24  C           0     135.938 130.099 146.599  0.00  0.00     0.358 C 
ATOM     25  N           0     137.042 129.373 146.864  0.00  0.00    -0.346 N 
ATOM     26  H           0     137.816 129.796 147.269  0.00  0.00     0.161 HD
ATOM     27  H           0     137.064 128.427 146.649  0.00  0.00     0.161 HD
ATOM     28  O           0     134.969 129.569 146.093  0.00  0.00    -0.239 OA
ENDBRANCH  23  24
ENDBRANCH  22  23
ENDBRANCH   6  22
BRANCH  18  29
ATOM     29  O           0     140.394 132.991 144.970  0.00  0.00    -0.362 OA
ATOM     30  H           0     140.556 133.904 145.245  0.00  0.00     0.213 HD
ENDBRANCH  18  29
BRANCH  18  31
ATOM     31  O           0     138.430 131.706 145.042  0.00  0.00    -0.362 OA
ATOM     32  H           0     137.930 131.932 145.839  0.00  0.00     0.213 HD
ENDBRANCH  18  31
TORSDOF 5
ENDMDL
MODEL 7
REMARK VINA RESULT:      -6.7      2.320      5.242
REMARK  5 active torsions:
REMARK  status: ('A' for Active; 'I' for Inactive)
REMARK    1  A    between atoms: C_6  and  C_7 
REMARK    2  A    between atoms: C_7  and  O_8 
REMARK    3  A    between atoms: O_8  and  C_9 
REMARK       I    between atoms: C_9  and  N_10 
REMARK    4  A    between atoms: C_23  and  O_24 
REMARK    5  A    between atoms: C_23  and  O_25 
ROOT
ATOM      1  N           0     138.073 135.371 147.218  0.00  0.00    -0.235 N 
ATOM      2  H           0     137.800 136.282 147.029  0.00  0.00     0.174 HD
ATOM      3  H           0     138.903 135.201 147.691  0.00  0.00     0.174 HD
ATOM      4  C           0     137.323 134.374 146.841  0.00  0.00     0.672 C 
ATOM      5  N           0     136.128 134.564 146.168  0.00  0.00    -0.218 N 
ATOM      6  C           0     135.672 133.517 145.259  0.00  0.00     0.151 C 
ATOM      7  C           0     135.665 132.145 145.905  0.00  0.00     0.180 C 
ATOM      8  N           0     134.489 132.032 146.794  0.00  0.00    -0.216 N 
ATOM      9  C           0     134.886 131.355 147.921  0.00  0.00     0.670 C 
ATOM     10  N           0     134.069 130.760 148.744  0.00  0.00    -0.235 N 
ATOM     11  H           0     133.113 130.780 148.577  0.00  0.00     0.174 HD
ATOM     12  H           0     134.416 130.299 149.523  0.00  0.00     0.174 HD
ATOM     13  C           0     136.846 131.886 146.826  0.00  0.00     0.217 C 
ATOM     14  N           0     136.250 131.381 148.074  0.00  0.00    -0.191 N 
ATOM     15  N           0     137.668 133.069 147.080  0.00  0.00    -0.183 N 
ATOM     16  C           0     138.953 132.551 147.585  0.00  0.00     0.150 C 
ATOM     17  C           0     139.208 131.276 146.745  0.00  0.00     0.093 C 
ATOM     18  C           0     137.809 130.836 146.245  0.00  0.00     0.209 C 
ATOM     19  H           0     135.607 135.372 146.299  0.00  0.00     0.178 HD
ATOM     20  H           0     133.599 132.373 146.614  0.00  0.00     0.178 HD
ATOM     21  H           0     136.737 131.111 148.868  0.00  0.00     0.180 HD
ENDROOT
BRANCH   6  22
ATOM     22  C           0     136.596 133.484 144.041  0.00  0.00     0.208 C 
BRANCH  22  23
ATOM     23  O           0     136.222 132.378 143.178  0.00  0.00    -0.302 OA
BRANCH  23  24
ATOM     24  C           0     135.398 132.587 142.134  0.00  0.00     0.358 C 
ATOM     25  N           0     135.869 133.156 141.007  0.00  0.00    -0.346 N 
ATOM     26  H           0     136.803 133.415 140.947  0.00  0.00     0.161 HD
ATOM     27  H           0     135.275 133.307 140.254  0.00  0.00     0.161 HD
ATOM     28  O           0     134.229 132.263 142.208  0.00  0.00    -0.239 OA
ENDBRANCH  23  24
ENDBRANCH  22  23
ENDBRANCH   6  22
BRANCH  18  29
ATOM     29  O           0     137.491 129.534 146.740  0.00  0.00    -0.362 OA
ATOM     30  H           0     136.531 129.503 146.849  0.00  0.00     0.213 HD
ENDBRANCH  18  29
BRANCH  18  31
ATOM     31  O           0     137.761 130.854 144.817  0.00  0.00    -0.362 OA
ATOM     32  H           0     138.155 130.025 144.514  0.00  0.00     0.213 HD
ENDBRANCH  18  31
TORSDOF 5
ENDMDL
MODEL 8
REMARK VINA RESULT:      -6.7      2.986      4.688
REMARK  5 active torsions:
REMARK  status: ('A' for Active; 'I' for Inactive)
REMARK    1  A    between atoms: C_6  and  C_7 
REMARK    2  A    between atoms: C_7  and  O_8 
REMARK    3  A    between atoms: O_8  and  C_9 
REMARK       I    between atoms: C_9  and  N_10 
REMARK    4  A    between atoms: C_23  and  O_24 
REMARK    5  A    between atoms: C_23  and  O_25 
ROOT
ATOM      1  N           0     138.739 133.416 142.620  0.00  0.00    -0.235 N 
ATOM      2  H           0     139.577 133.748 142.264  0.00  0.00     0.174 HD
ATOM      3  H           0     138.002 133.217 142.019  0.00  0.00     0.174 HD
ATOM      4  C           0     138.600 133.232 143.903  0.00  0.00     0.672 C 
ATOM      5  N           0     139.622 133.496 144.799  0.00  0.00    -0.218 N 
ATOM      6  C           0     139.264 133.877 146.162  0.00  0.00     0.151 C 
ATOM      7  C           0     138.282 132.913 146.799  0.00  0.00     0.180 C 
ATOM      8  N           0     139.001 131.691 147.216  0.00  0.00    -0.216 N 
ATOM      9  C           0     138.190 130.617 146.938  0.00  0.00     0.670 C 
ATOM     10  N           0     138.321 129.440 147.482  0.00  0.00    -0.235 N 
ATOM     11  H           0     139.027 129.280 148.128  0.00  0.00     0.174 HD
ATOM     12  H           0     137.712 128.724 147.240  0.00  0.00     0.174 HD
ATOM     13  C           0     137.210 132.401 145.850  0.00  0.00     0.217 C 
ATOM     14  N           0     137.224 130.938 146.017  0.00  0.00    -0.191 N 
ATOM     15  N           0     137.433 132.771 144.452  0.00  0.00    -0.183 N 
ATOM     16  C           0     136.127 132.597 143.790  0.00  0.00     0.150 C 
ATOM     17  C           0     135.098 133.087 144.837  0.00  0.00     0.093 C 
ATOM     18  C           0     135.818 132.953 146.203  0.00  0.00     0.209 C 
ATOM     19  H           0     140.550 133.430 144.528  0.00  0.00     0.178 HD
ATOM     20  H           0     139.885 131.652 147.614  0.00  0.00     0.178 HD
ATOM     21  H           0     136.648 130.308 145.556  0.00  0.00     0.180 HD
ENDROOT
BRANCH   6  22
ATOM     22  C           0     138.640 135.273 146.138  0.00  0.00     0.208 C 
BRANCH  22  23
ATOM     23  O           0     139.584 136.216 145.570  0.00  0.00    -0.302 OA
BRANCH  23  24
ATOM     24  C           0     139.889 137.348 146.234  0.00  0.00     0.358 C 
ATOM     25  N           0     139.132 137.741 147.278  0.00  0.00    -0.346 N 
ATOM     26  H           0     138.368 137.209 147.551  0.00  0.00     0.161 HD
ATOM     27  H           0     139.350 138.556 147.756  0.00  0.00     0.161 HD
ATOM     28  O           0     140.845 138.014 145.892  0.00  0.00    -0.239 OA
ENDBRANCH  23  24
ENDBRANCH  22  23
ENDBRANCH   6  22
BRANCH  18  29
ATOM     29  O           0     135.115 132.042 147.049  0.00  0.00    -0.362 OA
ATOM     30  H           0     135.116 131.186 146.600  0.00  0.00     0.213 HD
ENDBRANCH  18  29
BRANCH  18  31
ATOM     31  O           0     135.936 134.231 146.831  0.00  0.00    -0.362 OA
ATOM     32  H           0     135.294 134.813 146.402  0.00  0.00     0.213 HD
ENDBRANCH  18  31
TORSDOF 5
ENDMDL
MODEL 9
REMARK VINA RESULT:      -6.6      2.425      5.366
REMARK  5 active torsions:
REMARK  status: ('A' for Active; 'I' for Inactive)
REMARK    1  A    between atoms: C_6  and  C_7 
REMARK    2  A    between atoms: C_7  and  O_8 
REMARK    3  A    between atoms: O_8  and  C_9 
REMARK       I    between atoms: C_9  and  N_10 
REMARK    4  A    between atoms: C_23  and  O_24 
REMARK    5  A    between atoms: C_23  and  O_25 
ROOT
ATOM      1  N           0     136.025 134.618 147.286  0.00  0.00    -0.235 N 
ATOM      2  H           0     135.496 135.302 146.846  0.00  0.00     0.174 HD
ATOM      3  H           0     136.564 134.845 148.061  0.00  0.00     0.174 HD
ATOM      4  C           0     136.011 133.394 146.839  0.00  0.00     0.672 C 
ATOM      5  N           0     135.256 133.019 145.741  0.00  0.00    -0.218 N 
ATOM      6  C           0     135.722 131.896 144.932  0.00  0.00     0.151 C 
ATOM      7  C           0     136.033 130.667 145.764  0.00  0.00     0.180 C 
ATOM      8  N           0     134.767 130.004 146.144  0.00  0.00    -0.216 N 
ATOM      9  C           0     134.901 129.569 147.440  0.00  0.00     0.670 C 
ATOM     10  N           0     134.156 128.649 147.985  0.00  0.00    -0.235 N 
ATOM     11  H           0     133.454 128.225 147.466  0.00  0.00     0.174 HD
ATOM     12  H           0     134.304 128.387 148.907  0.00  0.00     0.174 HD
ATOM     13  C           0     136.701 130.970 147.095  0.00  0.00     0.217 C 
ATOM     14  N           0     135.916 130.224 148.092  0.00  0.00    -0.191 N 
ATOM     15  N           0     136.746 132.395 147.423  0.00  0.00    -0.183 N 
ATOM     16  C           0     137.783 132.525 148.463  0.00  0.00     0.150 C 
ATOM     17  C           0     138.886 131.529 148.029  0.00  0.00     0.093 C 
ATOM     18  C           0     138.166 130.498 147.124  0.00  0.00     0.209 C 
ATOM     19  H           0     134.439 133.490 145.515  0.00  0.00     0.178 HD
ATOM     20  H           0     133.985 129.896 145.582  0.00  0.00     0.178 HD
ATOM     21  H           0     136.088 130.197 149.046  0.00  0.00     0.180 HD
ENDROOT
BRANCH   6  22
ATOM     22  C           0     136.987 132.318 144.184  0.00  0.00     0.208 C 
BRANCH  22  23
ATOM     23  O           0     136.643 133.284 143.156  0.00  0.00    -0.302 OA
BRANCH  23  24
ATOM     24  C           0     137.260 134.480 143.122  0.00  0.00     0.358 C 
ATOM     25  N           0     136.629 135.577 143.586  0.00  0.00    -0.346 N 
ATOM     26  H           0     135.731 135.505 143.944  0.00  0.00     0.161 HD
ATOM     27  H           0     137.074 136.439 143.560  0.00  0.00     0.161 HD
ATOM     28  O           0     138.386 134.570 142.673  0.00  0.00    -0.239 OA
ENDBRANCH  23  24
ENDBRANCH  22  23
ENDBRANCH   6  22
BRANCH  18  29
ATOM     29  O           0     138.261 129.189 147.687  0.00  0.00    -0.362 OA
ATOM     30  H           0     137.599 128.643 147.240  0.00  0.00     0.213 HD
ENDBRANCH  18  29
BRANCH  18  31
ATOM     31  O           0     138.719 130.518 145.806  0.00  0.00    -0.362 OA
ATOM     32  H           0     139.681 130.540 145.908  0.00  0.00     0.213 HD
ENDBRANCH  18  31
TORSDOF 5
ENDMDL
