# created with PyMOL 2.3.4
@<TRIPOS>MOLECULE
ligand_out_0001
32 34 1                 
SMALL
USER_CHARGES
@<TRIPOS>ATOM
1	   N	135.492	132.627	147.071	N.3	1	UNK0	-0.235	
2	   N	136.798	134.357	146.156	N.3	1	UNK0	-0.218	
3	   N	136.267	136.081	143.659	N.3	1	UNK0	-0.216	
4	   N	134.324	136.839	142.542	N.3	1	UNK0	-0.235	
5	   N	134.649	134.574	143.138	N.3	1	UNK0	-0.191	
6	   N	135.512	133.002	144.761	N.3	1	UNK0	-0.183	
7	   N	140.744	133.984	147.907	N.pl3	1	UNK0	-0.346	
8	   C	135.913	133.299	146.037	C.3	1	UNK0	0.672	
9	   C	137.685	134.646	145.034	C.3	1	UNK0	0.151	
10	   C	136.942	134.767	143.718	C.3	1	UNK0	0.180	
11	   C	135.037	135.889	143.080	C.3	1	UNK0	0.670	
12	   C	135.810	133.767	143.550	C.3	1	UNK0	0.217	
13	   C	134.749	131.826	144.303	C.3	1	UNK0	0.150	
14	   C	135.425	131.427	142.968	C.3	1	UNK0	0.093	
15	   C	136.125	132.717	142.470	C.3	1	UNK0	0.209	
16	   C	138.716	133.521	144.917	C.2	1	UNK0	0.208	
17	   C	139.890	133.413	147.034	C.2	1	UNK0	0.358	
18	   O	139.862	133.826	145.753	O.2	1	UNK0	-0.302	
19	   O	139.146	132.527	147.403	O.co2	1	UNK0	-0.239	
20	   O	135.591	133.117	141.207	O.2	1	UNK0	-0.362	
21	   O	137.536	132.512	142.374	O.2	1	UNK0	-0.362	
22	   H	135.798	132.861	147.961	 H	1	UNK0	0.174	
23	   H	134.868	131.893	146.951	 H	1	UNK0	0.174	
24	   H	134.658	137.750	142.534	 H	1	UNK0	0.174	
25	   H	133.462	136.635	142.149	 H	1	UNK0	0.174	
26	   H	136.827	134.892	146.964	 H	1	UNK0	0.178	
27	   H	136.628	136.925	143.973	 H	1	UNK0	0.178	
28	   H	133.763	134.234	142.939	 H	1	UNK0	0.180	
29	   H	141.338	134.693	147.613	 H	1	UNK0	0.161	
30	   H	140.764	133.687	148.831	 H	1	UNK0	0.161	
31	   H	134.883	132.494	140.993	 H	1	UNK0	0.213	
32	   H	137.680	131.902	141.637	 H	1	UNK0	0.213	
@<TRIPOS>BOND
1 1 8 1
2 1 22 1
3 1 23 1
4 2 9 1
5 2 26 1
6 3 11 1
7 3 27 1
8 4 24 1
9 4 25 1
10 5 28 1
11 6 13 1
12 7 29 1
13 7 30 1
14 2 8 1
15 6 8 1
16 9 10 1
17 9 16 1
18 3 10 1
19 10 12 1
20 4 11 1
21 5 11 1
22 5 12 1
23 6 12 1
24 12 15 1
25 13 14 1
26 14 15 1
27 15 20 2
28 15 21 2
29 16 18 2
30 7 17 1
31 17 19 2
32 17 18 2
33 20 31 1
34 21 32 1
@<TRIPOS>SUBSTRUCTURE
1	UNK0	1	GROUP	1 ****	UNK
