# created with PyMOL 2.3.4
@<TRIPOS>MOLECULE
ligand_out_0001
33 35 1                 
SMALL
USER_CHARGES
@<TRIPOS>ATOM
1	   N	128.917	133.306	131.404	N.3	1	UNK0	-0.235	
2	   N	129.150	131.437	132.815	N.3	1	UNK0	-0.218	
3	   N	130.389	131.268	135.630	N.3	1	UNK0	-0.216	
4	   N	130.615	132.773	137.442	N.3	1	UNK0	-0.235	
5	   N	131.228	133.342	135.229	N.3	1	UNK0	-0.194	
6	   N	130.735	133.145	132.869	N.3	1	UNK0	-0.185	
7	   N	130.742	126.563	133.202	N.pl3	1	UNK0	-0.346	
8	   C	129.575	132.660	132.326	C.3	1	UNK0	0.672	
9	   C	130.155	130.508	133.323	C.3	1	UNK0	0.151	
10	   C	131.087	131.149	134.332	C.3	1	UNK0	0.178	
11	   C	130.736	132.480	136.178	C.3	1	UNK0	0.670	
12	   C	131.479	132.579	133.996	C.3	1	UNK0	0.192	
13	   C	131.532	134.301	132.418	C.3	1	UNK0	0.147	
14	   C	133.000	133.833	132.555	C.3	1	UNK0	0.063	
15	   C	132.962	132.692	133.604	C.3	1	UNK0	0.106	
16	   C	130.985	129.988	132.148	C.2	1	UNK0	0.208	
17	   C	131.374	127.694	132.828	C.2	1	UNK0	0.358	
18	   C	133.450	131.381	132.984	C.3	1	UNK0	0.042	
19	   C	134.752	130.951	133.661	C.3	1	UNK0	-0.001	
20	   C	135.923	131.169	132.699	C.3	1	UNK0	0.005	
21	   O	130.767	128.560	131.995	O.2	1	UNK0	-0.302	
22	   O	132.490	127.931	133.244	O.co2	1	UNK0	-0.239	
23	   O	133.758	133.032	134.741	O.2	1	UNK0	-0.385	
24	   H	128.101	132.930	131.038	 H	1	UNK0	0.174	
25	   H	129.242	134.163	131.087	 H	1	UNK0	0.174	
26	   H	130.260	132.116	138.060	 H	1	UNK0	0.174	
27	   H	130.880	133.649	137.763	 H	1	UNK0	0.174	
28	   H	128.209	131.203	132.819	 H	1	UNK0	0.178	
29	   H	129.794	130.612	136.024	 H	1	UNK0	0.178	
30	   H	131.385	134.291	135.352	 H	1	UNK0	0.180	
31	   H	129.851	126.373	132.869	 H	1	UNK0	0.161	
32	   H	131.179	125.938	133.802	 H	1	UNK0	0.161	
33	   H	133.379	132.563	135.497	 H	1	UNK0	0.210	
@<TRIPOS>BOND
1 1 8 1
2 1 24 1
3 1 25 1
4 2 9 1
5 2 28 1
6 3 11 1
7 3 29 1
8 4 26 1
9 4 27 1
10 5 30 1
11 6 13 1
12 7 31 1
13 7 32 1
14 2 8 1
15 6 8 1
16 9 10 1
17 9 16 1
18 3 10 1
19 10 12 1
20 4 11 1
21 5 11 1
22 5 12 1
23 6 12 1
24 12 15 1
25 13 14 1
26 14 15 1
27 15 18 1
28 15 23 2
29 16 21 2
30 7 17 1
31 17 22 2
32 18 19 1
33 19 20 1
34 17 21 2
35 23 33 1
@<TRIPOS>SUBSTRUCTURE
1	UNK0	1	GROUP	1 ****	UNK
