MODEL 1
REMARK VINA RESULT:      -6.4      0.000      0.000
REMARK  6 active torsions:
REMARK  status: ('A' for Active; 'I' for Inactive)
REMARK    1  A    between atoms: C_6  and  C_7 
REMARK    2  A    between atoms: C_7  and  O_8 
REMARK    3  A    between atoms: O_8  and  C_9 
REMARK       I    between atoms: C_9  and  N_10 
REMARK    4  A    between atoms: C_23  and  C_24 
REMARK    5  A    between atoms: C_23  and  O_27 
REMARK    6  A    between atoms: C_24  and  C_25 
ROOT
ATOM      1  N           0     128.917 133.306 131.404  0.00  0.00    -0.235 N 
ATOM      2  H           0     128.101 132.930 131.038  0.00  0.00     0.174 HD
ATOM      3  H           0     129.242 134.163 131.087  0.00  0.00     0.174 HD
ATOM      4  C           0     129.575 132.660 132.326  0.00  0.00     0.672 C 
ATOM      5  N           0     129.150 131.437 132.815  0.00  0.00    -0.218 N 
ATOM      6  C           0     130.155 130.508 133.323  0.00  0.00     0.151 C 
ATOM      7  C           0     131.087 131.149 134.332  0.00  0.00     0.178 C 
ATOM      8  N           0     130.389 131.268 135.630  0.00  0.00    -0.216 N 
ATOM      9  C           0     130.736 132.480 136.178  0.00  0.00     0.670 C 
ATOM     10  N           0     130.615 132.773 137.442  0.00  0.00    -0.235 N 
ATOM     11  H           0     130.260 132.116 138.060  0.00  0.00     0.174 HD
ATOM     12  H           0     130.880 133.649 137.763  0.00  0.00     0.174 HD
ATOM     13  C           0     131.479 132.579 133.996  0.00  0.00     0.192 C 
ATOM     14  N           0     131.228 133.342 135.229  0.00  0.00    -0.194 N 
ATOM     15  N           0     130.735 133.145 132.869  0.00  0.00    -0.185 N 
ATOM     16  C           0     131.532 134.301 132.418  0.00  0.00     0.147 C 
ATOM     17  C           0     133.000 133.833 132.555  0.00  0.00     0.063 C 
ATOM     18  C           0     132.962 132.692 133.604  0.00  0.00     0.106 C 
ATOM     19  H           0     128.209 131.203 132.819  0.00  0.00     0.178 HD
ATOM     20  H           0     129.794 130.612 136.024  0.00  0.00     0.178 HD
ATOM     21  H           0     131.385 134.291 135.352  0.00  0.00     0.180 HD
ENDROOT
BRANCH   6  22
ATOM     22  C           0     130.985 129.988 132.148  0.00  0.00     0.208 C 
BRANCH  22  23
ATOM     23  O           0     130.767 128.560 131.995  0.00  0.00    -0.302 OA
BRANCH  23  24
ATOM     24  C           0     131.374 127.694 132.828  0.00  0.00     0.358 C 
ATOM     25  N           0     130.742 126.563 133.202  0.00  0.00    -0.346 N 
ATOM     26  H           0     129.851 126.373 132.869  0.00  0.00     0.161 HD
ATOM     27  H           0     131.179 125.938 133.802  0.00  0.00     0.161 HD
ATOM     28  O           0     132.490 127.931 133.244  0.00  0.00    -0.239 OA
ENDBRANCH  23  24
ENDBRANCH  22  23
ENDBRANCH   6  22
BRANCH  18  29
ATOM     29  C           0     133.450 131.381 132.984  0.00  0.00     0.042 C 
BRANCH  29  30
ATOM     30  C           0     134.752 130.951 133.661  0.00  0.00    -0.001 C 
ATOM     31  C           0     135.923 131.169 132.699  0.00  0.00     0.005 C 
ENDBRANCH  29  30
ENDBRANCH  18  29
BRANCH  18  32
ATOM     32  O           0     133.758 133.032 134.741  0.00  0.00    -0.385 OA
ATOM     33  H           0     133.379 132.563 135.497  0.00  0.00     0.210 HD
ENDBRANCH  18  32
TORSDOF 6
ENDMDL
MODEL 2
REMARK VINA RESULT:      -6.3      2.549      5.700
REMARK  6 active torsions:
REMARK  status: ('A' for Active; 'I' for Inactive)
REMARK    1  A    between atoms: C_6  and  C_7 
REMARK    2  A    between atoms: C_7  and  O_8 
REMARK    3  A    between atoms: O_8  and  C_9 
REMARK       I    between atoms: C_9  and  N_10 
REMARK    4  A    between atoms: C_23  and  C_24 
REMARK    5  A    between atoms: C_23  and  O_27 
REMARK    6  A    between atoms: C_24  and  C_25 
ROOT
ATOM      1  N           0     134.717 133.000 133.604  0.00  0.00    -0.235 N 
ATOM      2  H           0     135.342 133.720 133.776  0.00  0.00     0.174 HD
ATOM      3  H           0     135.016 132.193 133.157  0.00  0.00     0.174 HD
ATOM      4  C           0     133.472 133.113 133.978  0.00  0.00     0.672 C 
ATOM      5  N           0     132.998 134.242 134.623  0.00  0.00    -0.218 N 
ATOM      6  C           0     131.590 134.592 134.459  0.00  0.00     0.151 C 
ATOM      7  C           0     130.661 133.428 134.746  0.00  0.00     0.178 C 
ATOM      8  N           0     130.553 133.242 136.210  0.00  0.00    -0.216 N 
ATOM      9  C           0     130.543 131.891 136.456  0.00  0.00     0.670 C 
ATOM     10  N           0     130.105 131.351 137.559  0.00  0.00    -0.235 N 
ATOM     11  H           0     129.758 131.914 138.269  0.00  0.00     0.174 HD
ATOM     12  H           0     130.126 130.388 137.669  0.00  0.00     0.174 HD
ATOM     13  C           0     131.172 132.087 134.246  0.00  0.00     0.192 C 
ATOM     14  N           0     131.050 131.179 135.397  0.00  0.00    -0.194 N 
ATOM     15  N           0     132.550 132.126 133.753  0.00  0.00    -0.185 N 
ATOM     16  C           0     132.703 130.916 132.925  0.00  0.00     0.147 C 
ATOM     17  C           0     131.347 130.779 132.191  0.00  0.00     0.063 C 
ATOM     18  C           0     130.334 131.555 133.070  0.00  0.00     0.106 C 
ATOM     19  H           0     133.585 134.787 135.170  0.00  0.00     0.178 HD
ATOM     20  H           0     130.500 133.946 136.875  0.00  0.00     0.178 HD
ATOM     21  H           0     131.285 130.238 135.407  0.00  0.00     0.180 HD
ENDROOT
BRANCH   6  22
ATOM     22  C           0     131.361 135.059 133.021  0.00  0.00     0.208 C 
BRANCH  22  23
ATOM     23  O           0     130.704 136.354 133.031  0.00  0.00    -0.302 OA
BRANCH  23  24
ATOM     24  C           0     131.417 137.469 133.278  0.00  0.00     0.358 C 
ATOM     25  N           0     130.815 138.549 133.815  0.00  0.00    -0.346 N 
ATOM     26  H           0     129.868 138.522 134.025  0.00  0.00     0.161 HD
ATOM     27  H           0     131.329 139.353 133.993  0.00  0.00     0.161 HD
ATOM     28  O           0     132.603 137.503 133.016  0.00  0.00    -0.239 OA
ENDBRANCH  23  24
ENDBRANCH  22  23
ENDBRANCH   6  22
BRANCH  18  29
ATOM     29  C           0     129.724 132.716 132.283  0.00  0.00     0.042 C 
BRANCH  29  30
ATOM     30  C           0     128.380 132.284 131.695  0.00  0.00    -0.001 C 
ATOM     31  C           0     127.398 133.456 131.751  0.00  0.00     0.005 C 
ENDBRANCH  29  30
ENDBRANCH  18  29
BRANCH  18  32
ATOM     32  O           0     129.308 130.678 133.540  0.00  0.00    -0.385 OA
ATOM     33  H           0     128.629 131.235 133.945  0.00  0.00     0.210 HD
ENDBRANCH  18  32
TORSDOF 6
ENDMDL
MODEL 3
REMARK VINA RESULT:      -6.3     12.160     14.400
REMARK  6 active torsions:
REMARK  status: ('A' for Active; 'I' for Inactive)
REMARK    1  A    between atoms: C_6  and  C_7 
REMARK    2  A    between atoms: C_7  and  O_8 
REMARK    3  A    between atoms: O_8  and  C_9 
REMARK       I    between atoms: C_9  and  N_10 
REMARK    4  A    between atoms: C_23  and  C_24 
REMARK    5  A    between atoms: C_23  and  O_27 
REMARK    6  A    between atoms: C_24  and  C_25 
ROOT
ATOM      1  N           0     135.891 134.606 147.558  0.00  0.00    -0.235 N 
ATOM      2  H           0     135.471 135.348 147.096  0.00  0.00     0.174 HD
ATOM      3  H           0     136.218 134.719 148.463  0.00  0.00     0.174 HD
ATOM      4  C           0     136.012 133.452 146.961  0.00  0.00     0.672 C 
ATOM      5  N           0     135.557 133.238 145.672  0.00  0.00    -0.218 N 
ATOM      6  C           0     136.229 132.228 144.860  0.00  0.00     0.151 C 
ATOM      7  C           0     136.354 130.895 145.570  0.00  0.00     0.178 C 
ATOM      8  N           0     135.047 130.202 145.537  0.00  0.00    -0.216 N 
ATOM      9  C           0     134.869 129.596 146.757  0.00  0.00     0.670 C 
ATOM     10  N           0     134.033 128.620 146.973  0.00  0.00    -0.235 N 
ATOM     11  H           0     133.488 128.278 146.247  0.00  0.00     0.174 HD
ATOM     12  H           0     133.956 128.236 147.860  0.00  0.00     0.174 HD
ATOM     13  C           0     136.669 131.007 147.053  0.00  0.00     0.192 C 
ATOM     14  N           0     135.681 130.144 147.719  0.00  0.00    -0.194 N 
ATOM     15  N           0     136.602 132.376 147.569  0.00  0.00    -0.185 N 
ATOM     16  C           0     137.351 132.351 148.838  0.00  0.00     0.147 C 
ATOM     17  C           0     138.548 131.410 148.560  0.00  0.00     0.063 C 
ATOM     18  C           0     138.092 130.519 147.377  0.00  0.00     0.106 C 
ATOM     19  H           0     134.810 133.746 145.317  0.00  0.00     0.178 HD
ATOM     20  H           0     134.429 130.181 144.791  0.00  0.00     0.178 HD
ATOM     21  H           0     135.614 129.987 148.674  0.00  0.00     0.180 HD
ENDROOT
BRANCH   6  22
ATOM     22  C           0     137.630 132.731 144.508  0.00  0.00     0.208 C 
BRANCH  22  23
ATOM     23  O           0     137.586 133.442 143.243  0.00  0.00    -0.302 OA
BRANCH  23  24
ATOM     24  C           0     137.756 134.777 143.215  0.00  0.00     0.358 C 
ATOM     25  N           0     136.756 135.594 143.602  0.00  0.00    -0.346 N 
ATOM     26  H           0     135.913 135.218 143.902  0.00  0.00     0.161 HD
ATOM     27  H           0     136.878 136.556 143.582  0.00  0.00     0.161 HD
ATOM     28  O           0     138.812 135.248 142.839  0.00  0.00    -0.239 OA
ENDBRANCH  23  24
ENDBRANCH  22  23
ENDBRANCH   6  22
BRANCH  18  29
ATOM     29  C           0     139.012 130.721 146.171  0.00  0.00     0.042 C 
BRANCH  29  30
ATOM     30  C           0     140.465 130.782 146.643  0.00  0.00    -0.001 C 
ATOM     31  C           0     141.125 132.051 146.100  0.00  0.00     0.005 C 
ENDBRANCH  29  30
ENDBRANCH  18  29
BRANCH  18  32
ATOM     32  O           0     138.075 129.144 147.766  0.00  0.00    -0.385 OA
ATOM     33  H           0     137.160 128.931 147.998  0.00  0.00     0.210 HD
ENDBRANCH  18  32
TORSDOF 6
ENDMDL
MODEL 4
REMARK VINA RESULT:      -6.3      3.340      4.608
REMARK  6 active torsions:
REMARK  status: ('A' for Active; 'I' for Inactive)
REMARK    1  A    between atoms: C_6  and  C_7 
REMARK    2  A    between atoms: C_7  and  O_8 
REMARK    3  A    between atoms: O_8  and  C_9 
REMARK       I    between atoms: C_9  and  N_10 
REMARK    4  A    between atoms: C_23  and  C_24 
REMARK    5  A    between atoms: C_23  and  O_27 
REMARK    6  A    between atoms: C_24  and  C_25 
ROOT
ATOM      1  N           0     132.203 137.307 132.435  0.00  0.00    -0.235 N 
ATOM      2  H           0     131.430 137.881 132.319  0.00  0.00     0.174 HD
ATOM      3  H           0     132.963 137.388 131.838  0.00  0.00     0.174 HD
ATOM      4  C           0     132.222 136.429 133.399  0.00  0.00     0.672 C 
ATOM      5  N           0     131.165 136.279 134.281  0.00  0.00    -0.218 N 
ATOM      6  C           0     130.949 134.969 134.886  0.00  0.00     0.151 C 
ATOM      7  C           0     132.206 134.401 135.516  0.00  0.00     0.178 C 
ATOM      8  N           0     132.447 135.075 136.811  0.00  0.00    -0.216 N 
ATOM      9  C           0     133.800 135.284 136.924  0.00  0.00     0.670 C 
ATOM     10  N           0     134.413 135.514 138.050  0.00  0.00    -0.235 N 
ATOM     11  H           0     133.910 135.546 138.878  0.00  0.00     0.174 HD
ATOM     12  H           0     135.373 135.654 138.060  0.00  0.00     0.174 HD
ATOM     13  C           0     133.475 134.670 134.724  0.00  0.00     0.192 C 
ATOM     14  N           0     134.426 135.220 135.703  0.00  0.00    -0.194 N 
ATOM     15  N           0     133.286 135.591 133.602  0.00  0.00    -0.185 N 
ATOM     16  C           0     134.450 135.376 132.722  0.00  0.00     0.147 C 
ATOM     17  C           0     134.695 133.850 132.774  0.00  0.00     0.063 C 
ATOM     18  C           0     134.049 133.384 134.104  0.00  0.00     0.106 C 
ATOM     19  H           0     130.583 137.027 134.491  0.00  0.00     0.178 HD
ATOM     20  H           0     131.772 135.325 137.461  0.00  0.00     0.178 HD
ATOM     21  H           0     135.339 135.489 135.519  0.00  0.00     0.180 HD
ENDROOT
BRANCH   6  22
ATOM     22  C           0     130.461 134.001 133.806  0.00  0.00     0.208 C 
BRANCH  22  23
ATOM     23  O           0     129.201 134.477 133.263  0.00  0.00    -0.302 OA
BRANCH  23  24
ATOM     24  C           0     129.082 134.709 131.942  0.00  0.00     0.358 C 
ATOM     25  N           0     128.337 133.885 131.177  0.00  0.00    -0.346 N 
ATOM     26  H           0     127.887 133.126 131.579  0.00  0.00     0.161 HD
ATOM     27  H           0     128.251 134.052 130.225  0.00  0.00     0.161 HD
ATOM     28  O           0     129.645 135.660 131.438  0.00  0.00    -0.239 OA
ENDBRANCH  23  24
ENDBRANCH  22  23
ENDBRANCH   6  22
BRANCH  18  29
ATOM     29  C           0     132.928 132.379 133.830  0.00  0.00     0.042 C 
BRANCH  29  30
ATOM     30  C           0     133.262 131.573 132.574  0.00  0.00    -0.001 C 
ATOM     31  C           0     133.707 130.165 132.975  0.00  0.00     0.005 C 
ENDBRANCH  29  30
ENDBRANCH  18  29
BRANCH  18  32
ATOM     32  O           0     135.035 132.808 134.963  0.00  0.00    -0.385 OA
ATOM     33  H           0     134.573 132.512 135.759  0.00  0.00     0.210 HD
ENDBRANCH  18  32
TORSDOF 6
ENDMDL
MODEL 5
REMARK VINA RESULT:      -6.3     11.775     14.105
REMARK  6 active torsions:
REMARK  status: ('A' for Active; 'I' for Inactive)
REMARK    1  A    between atoms: C_6  and  C_7 
REMARK    2  A    between atoms: C_7  and  O_8 
REMARK    3  A    between atoms: O_8  and  C_9 
REMARK       I    between atoms: C_9  and  N_10 
REMARK    4  A    between atoms: C_23  and  C_24 
REMARK    5  A    between atoms: C_23  and  O_27 
REMARK    6  A    between atoms: C_24  and  C_25 
ROOT
ATOM      1  N           0     135.466 132.557 149.201  0.00  0.00    -0.235 N 
ATOM      2  H           0     135.205 132.024 149.968  0.00  0.00     0.174 HD
ATOM      3  H           0     135.230 133.497 149.159  0.00  0.00     0.174 HD
ATOM      4  C           0     136.138 132.010 148.226  0.00  0.00     0.672 C 
ATOM      5  N           0     136.503 130.675 148.242  0.00  0.00    -0.218 N 
ATOM      6  C           0     136.666 129.988 146.964  0.00  0.00     0.151 C 
ATOM      7  C           0     137.570 130.739 146.007  0.00  0.00     0.178 C 
ATOM      8  N           0     138.979 130.541 146.413  0.00  0.00    -0.216 N 
ATOM      9  C           0     139.632 131.738 146.242  0.00  0.00     0.670 C 
ATOM     10  N           0     140.926 131.858 146.148  0.00  0.00    -0.235 N 
ATOM     11  H           0     141.491 131.072 146.199  0.00  0.00     0.174 HD
ATOM     12  H           0     141.324 132.734 146.029  0.00  0.00     0.174 HD
ATOM     13  C           0     137.392 132.249 146.038  0.00  0.00     0.192 C 
ATOM     14  N           0     138.753 132.790 146.181  0.00  0.00    -0.194 N 
ATOM     15  N           0     136.524 132.718 147.119  0.00  0.00    -0.185 N 
ATOM     16  C           0     136.116 134.080 146.728  0.00  0.00     0.147 C 
ATOM     17  C           0     135.904 133.993 145.198  0.00  0.00     0.063 C 
ATOM     18  C           0     136.753 132.779 144.743  0.00  0.00     0.106 C 
ATOM     19  H           0     136.647 130.209 149.080  0.00  0.00     0.178 HD
ATOM     20  H           0     139.370 129.717 146.740  0.00  0.00     0.178 HD
ATOM     21  H           0     138.989 133.730 146.224  0.00  0.00     0.180 HD
ENDROOT
BRANCH   6  22
ATOM     22  C           0     135.291 129.823 146.314  0.00  0.00     0.208 C 
BRANCH  22  23
ATOM     23  O           0     134.794 128.483 146.568  0.00  0.00    -0.302 OA
BRANCH  23  24
ATOM     24  C           0     133.895 128.272 147.548  0.00  0.00     0.358 C 
ATOM     25  N           0     132.610 128.006 147.239  0.00  0.00    -0.346 N 
ATOM     26  H           0     132.333 127.966 146.310  0.00  0.00     0.161 HD
ATOM     27  H           0     131.962 127.855 147.945  0.00  0.00     0.161 HD
ATOM     28  O           0     134.242 128.323 148.711  0.00  0.00    -0.239 OA
ENDBRANCH  23  24
ENDBRANCH  22  23
ENDBRANCH   6  22
BRANCH  18  29
ATOM     29  C           0     135.858 131.708 144.114  0.00  0.00     0.042 C 
BRANCH  29  30
ATOM     30  C           0     134.549 132.347 143.649  0.00  0.00    -0.001 C 
ATOM     31  C           0     134.525 132.405 142.120  0.00  0.00     0.005 C 
ENDBRANCH  29  30
ENDBRANCH  18  29
BRANCH  18  32
ATOM     32  O           0     137.760 133.193 143.818  0.00  0.00    -0.385 OA
ATOM     33  H           0     137.330 133.277 142.956  0.00  0.00     0.210 HD
ENDBRANCH  18  32
TORSDOF 6
ENDMDL
MODEL 6
REMARK VINA RESULT:      -6.3     11.776     14.298
REMARK  6 active torsions:
REMARK  status: ('A' for Active; 'I' for Inactive)
REMARK    1  A    between atoms: C_6  and  C_7 
REMARK    2  A    between atoms: C_7  and  O_8 
REMARK    3  A    between atoms: O_8  and  C_9 
REMARK       I    between atoms: C_9  and  N_10 
REMARK    4  A    between atoms: C_23  and  C_24 
REMARK    5  A    between atoms: C_23  and  O_27 
REMARK    6  A    between atoms: C_24  and  C_25 
ROOT
ATOM      1  N           0     140.286 132.068 145.637  0.00  0.00    -0.235 N 
ATOM      2  H           0     140.738 132.351 144.827  0.00  0.00     0.174 HD
ATOM      3  H           0     140.758 131.537 146.296  0.00  0.00     0.174 HD
ATOM      4  C           0     139.043 132.408 145.841  0.00  0.00     0.672 C 
ATOM      5  N           0     138.329 133.169 144.933  0.00  0.00    -0.218 N 
ATOM      6  C           0     136.880 132.998 144.875  0.00  0.00     0.151 C 
ATOM      7  C           0     136.224 133.105 146.238  0.00  0.00     0.178 C 
ATOM      8  N           0     136.146 134.529 146.629  0.00  0.00    -0.216 N 
ATOM      9  C           0     136.427 134.606 147.972  0.00  0.00     0.670 C 
ATOM     10  N           0     136.107 135.617 148.730  0.00  0.00    -0.235 N 
ATOM     11  H           0     135.640 136.378 148.351  0.00  0.00     0.174 HD
ATOM     12  H           0     136.336 135.607 149.672  0.00  0.00     0.174 HD
ATOM     13  C           0     137.018 132.461 147.363  0.00  0.00     0.192 C 
ATOM     14  N           0     137.086 133.487 148.416  0.00  0.00    -0.194 N 
ATOM     15  N           0     138.359 132.028 146.966  0.00  0.00    -0.185 N 
ATOM     16  C           0     138.779 131.063 147.998  0.00  0.00     0.147 C 
ATOM     17  C           0     137.493 130.269 148.327  0.00  0.00     0.063 C 
ATOM     18  C           0     136.327 131.199 147.907  0.00  0.00     0.106 C 
ATOM     19  H           0     138.779 133.800 144.350  0.00  0.00     0.178 HD
ATOM     20  H           0     135.935 135.273 146.045  0.00  0.00     0.178 HD
ATOM     21  H           0     137.520 133.389 149.278  0.00  0.00     0.180 HD
ENDROOT
BRANCH   6  22
ATOM     22  C           0     136.569 131.621 144.286  0.00  0.00     0.208 C 
BRANCH  22  23
ATOM     23  O           0     136.587 131.699 142.837  0.00  0.00    -0.302 OA
BRANCH  23  24
ATOM     24  C           0     135.571 132.290 142.181  0.00  0.00     0.358 C 
ATOM     25  N           0     135.826 133.181 141.202  0.00  0.00    -0.346 N 
ATOM     26  H           0     136.743 133.395 140.969  0.00  0.00     0.161 HD
ATOM     27  H           0     135.094 133.606 140.729  0.00  0.00     0.161 HD
ATOM     28  O           0     134.422 132.020 142.472  0.00  0.00    -0.239 OA
ENDBRANCH  23  24
ENDBRANCH  22  23
ENDBRANCH   6  22
BRANCH  18  29
ATOM     29  C           0     135.487 130.539 146.811  0.00  0.00     0.042 C 
BRANCH  29  30
ATOM     30  C           0     135.626 129.019 146.908  0.00  0.00    -0.001 C 
ATOM     31  C           0     134.282 128.409 147.313  0.00  0.00     0.005 C 
ENDBRANCH  29  30
ENDBRANCH  18  29
BRANCH  18  32
ATOM     32  O           0     135.512 131.519 149.036  0.00  0.00    -0.385 OA
ATOM     33  H           0     134.818 132.113 148.719  0.00  0.00     0.210 HD
ENDBRANCH  18  32
TORSDOF 6
ENDMDL
MODEL 7
REMARK VINA RESULT:      -6.2      2.354      5.223
REMARK  6 active torsions:
REMARK  status: ('A' for Active; 'I' for Inactive)
REMARK    1  A    between atoms: C_6  and  C_7 
REMARK    2  A    between atoms: C_7  and  O_8 
REMARK    3  A    between atoms: O_8  and  C_9 
REMARK       I    between atoms: C_9  and  N_10 
REMARK    4  A    between atoms: C_23  and  C_24 
REMARK    5  A    between atoms: C_23  and  O_27 
REMARK    6  A    between atoms: C_24  and  C_25 
ROOT
ATOM      1  N           0     131.176 133.308 137.005  0.00  0.00    -0.235 N 
ATOM      2  H           0     131.112 133.947 137.732  0.00  0.00     0.174 HD
ATOM      3  H           0     131.291 132.365 137.196  0.00  0.00     0.174 HD
ATOM      4  C           0     131.102 133.719 135.769  0.00  0.00     0.672 C 
ATOM      5  N           0     130.932 135.054 135.446  0.00  0.00    -0.218 N 
ATOM      6  C           0     131.463 135.530 134.172  0.00  0.00     0.151 C 
ATOM      7  C           0     131.024 134.675 132.999  0.00  0.00     0.178 C 
ATOM      8  N           0     129.622 135.002 132.657  0.00  0.00    -0.216 N 
ATOM      9  C           0     128.987 133.825 132.343  0.00  0.00     0.670 C 
ATOM     10  N           0     127.880 133.750 131.660  0.00  0.00    -0.235 N 
ATOM     11  H           0     127.453 134.560 131.339  0.00  0.00     0.174 HD
ATOM     12  H           0     127.483 132.886 131.473  0.00  0.00     0.174 HD
ATOM     13  C           0     130.988 133.184 133.295  0.00  0.00     0.192 C 
ATOM     14  N           0     129.663 132.737 132.838  0.00  0.00    -0.194 N 
ATOM     15  N           0     131.193 132.858 134.708  0.00  0.00    -0.185 N 
ATOM     16  C           0     131.572 131.433 134.728  0.00  0.00     0.147 C 
ATOM     17  C           0     132.478 131.259 133.486  0.00  0.00     0.063 C 
ATOM     18  C           0     132.087 132.420 132.537  0.00  0.00     0.106 C 
ATOM     19  H           0     130.472 135.658 136.050  0.00  0.00     0.178 HD
ATOM     20  H           0     129.224 135.886 132.655  0.00  0.00     0.178 HD
ATOM     21  H           0     129.324 131.829 132.877  0.00  0.00     0.180 HD
ENDROOT
BRANCH   6  22
ATOM     22  C           0     132.991 135.523 134.241  0.00  0.00     0.208 C 
BRANCH  22  23
ATOM     23  O           0     133.418 135.956 135.559  0.00  0.00    -0.302 OA
BRANCH  23  24
ATOM     24  C           0     134.343 135.247 136.234  0.00  0.00     0.358 C 
ATOM     25  N           0     134.795 135.689 137.424  0.00  0.00    -0.346 N 
ATOM     26  H           0     134.454 136.518 137.795  0.00  0.00     0.161 HD
ATOM     27  H           0     135.461 135.178 137.911  0.00  0.00     0.161 HD
ATOM     28  O           0     134.770 134.208 135.770  0.00  0.00    -0.239 OA
ENDBRANCH  23  24
ENDBRANCH  22  23
ENDBRANCH   6  22
BRANCH  18  29
ATOM     29  C           0     133.291 133.331 132.285  0.00  0.00     0.042 C 
BRANCH  29  30
ATOM     30  C           0     134.579 132.580 132.626  0.00  0.00    -0.001 C 
ATOM     31  C           0     135.499 132.565 131.403  0.00  0.00     0.005 C 
ENDBRANCH  29  30
ENDBRANCH  18  29
BRANCH  18  32
ATOM     32  O           0     131.583 131.908 131.302  0.00  0.00    -0.385 OA
ATOM     33  H           0     130.967 131.197 131.526  0.00  0.00     0.210 HD
ENDBRANCH  18  32
TORSDOF 6
ENDMDL
MODEL 8
REMARK VINA RESULT:      -6.2     11.636     14.331
REMARK  6 active torsions:
REMARK  status: ('A' for Active; 'I' for Inactive)
REMARK    1  A    between atoms: C_6  and  C_7 
REMARK    2  A    between atoms: C_7  and  O_8 
REMARK    3  A    between atoms: O_8  and  C_9 
REMARK       I    between atoms: C_9  and  N_10 
REMARK    4  A    between atoms: C_23  and  C_24 
REMARK    5  A    between atoms: C_23  and  O_27 
REMARK    6  A    between atoms: C_24  and  C_25 
ROOT
ATOM      1  N           0     134.433 130.939 144.280  0.00  0.00    -0.235 N 
ATOM      2  H           0     134.255 130.988 143.328  0.00  0.00     0.174 HD
ATOM      3  H           0     133.797 130.509 144.872  0.00  0.00     0.174 HD
ATOM      4  C           0     135.532 131.449 144.764  0.00  0.00     0.672 C 
ATOM      5  N           0     136.473 132.068 143.959  0.00  0.00    -0.218 N 
ATOM      6  C           0     137.304 133.115 144.546  0.00  0.00     0.151 C 
ATOM      7  C           0     137.964 132.680 145.840  0.00  0.00     0.178 C 
ATOM      8  N           0     139.111 131.800 145.528  0.00  0.00    -0.216 N 
ATOM      9  C           0     139.125 130.790 146.460  0.00  0.00     0.670 C 
ATOM     10  N           0     140.166 130.052 146.724  0.00  0.00    -0.235 N 
ATOM     11  H           0     140.998 130.201 146.250  0.00  0.00     0.174 HD
ATOM     12  H           0     140.107 129.355 147.395  0.00  0.00     0.174 HD
ATOM     13  C           0     137.081 131.824 146.733  0.00  0.00     0.192 C 
ATOM     14  N           0     137.906 130.656 147.078  0.00  0.00    -0.194 N 
ATOM     15  N           0     135.827 131.411 146.101  0.00  0.00    -0.185 N 
ATOM     16  C           0     134.945 131.008 147.211  0.00  0.00     0.147 C 
ATOM     17  C           0     135.248 132.030 148.333  0.00  0.00     0.063 C 
ATOM     18  C           0     136.666 132.568 148.014  0.00  0.00     0.106 C 
ATOM     19  H           0     136.578 131.813 143.029  0.00  0.00     0.178 HD
ATOM     20  H           0     139.739 131.913 144.798  0.00  0.00     0.178 HD
ATOM     21  H           0     137.638 129.918 147.648  0.00  0.00     0.180 HD
ENDROOT
BRANCH   6  22
ATOM     22  C           0     136.430 134.338 144.828  0.00  0.00     0.208 C 
BRANCH  22  23
ATOM     23  O           0     136.177 135.048 143.587  0.00  0.00    -0.302 OA
BRANCH  23  24
ATOM     24  C           0     134.929 135.099 143.083  0.00  0.00     0.358 C 
ATOM     25  N           0     134.461 136.249 142.556  0.00  0.00    -0.346 N 
ATOM     26  H           0     135.023 137.039 142.540  0.00  0.00     0.161 HD
ATOM     27  H           0     133.562 136.285 142.193  0.00  0.00     0.161 HD
ATOM     28  O           0     134.225 134.109 143.102  0.00  0.00    -0.239 OA
ENDBRANCH  23  24
ENDBRANCH  22  23
ENDBRANCH   6  22
BRANCH  18  29
ATOM     29  C           0     136.620 134.077 147.763  0.00  0.00     0.042 C 
BRANCH  29  30
ATOM     30  C           0     137.371 134.803 148.879  0.00  0.00    -0.001 C 
ATOM     31  C           0     136.428 135.790 149.570  0.00  0.00     0.005 C 
ENDBRANCH  29  30
ENDBRANCH  18  29
BRANCH  18  32
ATOM     32  O           0     137.565 132.268 149.084  0.00  0.00    -0.385 OA
ATOM     33  H           0     138.361 132.796 148.934  0.00  0.00     0.210 HD
ENDBRANCH  18  32
TORSDOF 6
ENDMDL
MODEL 9
REMARK VINA RESULT:      -6.0     12.915     15.273
REMARK  6 active torsions:
REMARK  status: ('A' for Active; 'I' for Inactive)
REMARK    1  A    between atoms: C_6  and  C_7 
REMARK    2  A    between atoms: C_7  and  O_8 
REMARK    3  A    between atoms: O_8  and  C_9 
REMARK       I    between atoms: C_9  and  N_10 
REMARK    4  A    between atoms: C_23  and  C_24 
REMARK    5  A    between atoms: C_23  and  O_27 
REMARK    6  A    between atoms: C_24  and  C_25 
ROOT
ATOM      1  N           0     134.775 131.374 145.373  0.00  0.00    -0.235 N 
ATOM      2  H           0     134.661 131.198 144.426  0.00  0.00     0.174 HD
ATOM      3  H           0     134.021 131.667 145.907  0.00  0.00     0.174 HD
ATOM      4  C           0     135.944 131.210 145.930  0.00  0.00     0.672 C 
ATOM      5  N           0     137.049 130.789 145.211  0.00  0.00    -0.218 N 
ATOM      6  C           0     138.371 131.206 145.668  0.00  0.00     0.151 C 
ATOM      7  C           0     138.598 130.924 147.140  0.00  0.00     0.178 C 
ATOM      8  N           0     138.875 129.482 147.321  0.00  0.00    -0.216 N 
ATOM      9  C           0     138.232 129.076 148.465  0.00  0.00     0.670 C 
ATOM     10  N           0     138.532 127.995 149.129  0.00  0.00    -0.235 N 
ATOM     11  H           0     139.250 127.421 148.820  0.00  0.00     0.174 HD
ATOM     12  H           0     138.037 127.766 149.930  0.00  0.00     0.174 HD
ATOM     13  C           0     137.380 131.172 148.016  0.00  0.00     0.192 C 
ATOM     14  N           0     137.235 129.950 148.822  0.00  0.00    -0.194 N 
ATOM     15  N           0     136.157 131.450 147.261  0.00  0.00    -0.185 N 
ATOM     16  C           0     135.242 132.091 148.224  0.00  0.00     0.147 C 
ATOM     17  C           0     136.157 133.000 149.077  0.00  0.00     0.063 C 
ATOM     18  C           0     137.574 132.387 148.939  0.00  0.00     0.106 C 
ATOM     19  H           0     136.948 130.230 144.425  0.00  0.00     0.178 HD
ATOM     20  H           0     139.413 128.925 146.738  0.00  0.00     0.178 HD
ATOM     21  H           0     136.554 129.789 149.494  0.00  0.00     0.180 HD
ENDROOT
BRANCH   6  22
ATOM     22  C           0     138.524 132.709 145.427  0.00  0.00     0.208 C 
BRANCH  22  23
ATOM     23  O           0     138.938 132.940 144.055  0.00  0.00    -0.302 OA
BRANCH  23  24
ATOM     24  C           0     138.040 133.351 143.140  0.00  0.00     0.358 C 
ATOM     25  N           0     138.032 134.635 142.731  0.00  0.00    -0.346 N 
ATOM     26  H           0     138.676 135.264 143.095  0.00  0.00     0.161 HD
ATOM     27  H           0     137.385 134.931 142.072  0.00  0.00     0.161 HD
ATOM     28  O           0     137.234 132.564 142.683  0.00  0.00    -0.239 OA
ENDBRANCH  23  24
ENDBRANCH  22  23
ENDBRANCH   6  22
BRANCH  18  29
ATOM     29  C           0     138.531 133.395 148.299  0.00  0.00     0.042 C 
BRANCH  29  30
ATOM     30  C           0     139.652 133.730 149.283  0.00  0.00    -0.001 C 
ATOM     31  C           0     141.005 133.608 148.577  0.00  0.00     0.005 C 
ENDBRANCH  29  30
ENDBRANCH  18  29
BRANCH  18  32
ATOM     32  O           0     138.066 131.975 150.216  0.00  0.00    -0.385 OA
ATOM     33  H           0     138.979 131.686 150.083  0.00  0.00     0.210 HD
ENDBRANCH  18  32
TORSDOF 6
ENDMDL
