# created with PyMOL 2.3.4
@<TRIPOS>MOLECULE
ligand_out_0001
32 35 1                 
SMALL
USER_CHARGES
@<TRIPOS>ATOM
1	   N	137.745	133.320	145.384	N.3	1	UNK0	-0.235	
2	   N	136.065	132.434	144.002	N.pl3	1	UNK0	-0.200	
3	   N	137.568	134.047	143.154	N.3	1	UNK0	-0.211	
4	   C	137.150	133.267	144.226	C.3	1	UNK0	0.670	
5	   C	134.935	132.969	143.223	C.2	1	UNK0	0.244	
6	   C	135.489	133.608	141.946	C.3	1	UNK0	0.101	
7	   C	136.532	134.664	142.334	C.3	1	UNK0	0.119	
8	   C	135.817	135.763	143.132	C.2	1	UNK0	0.243	
9	   C	134.366	134.280	141.156	C.2	1	UNK0	0.177	
10	   C	134.727	136.330	142.213	C.3	1	UNK0	0.311	
11	   C	134.959	134.870	139.869	C.3	1	UNK0	0.134	
12	   C	135.980	135.947	140.283	C.2	1	UNK0	0.198	
13	   C	137.111	135.294	141.068	C.2	1	UNK0	0.182	
14	   C	133.846	135.492	139.023	C.2	1	UNK0	0.207	
15	   O	133.769	135.330	141.908	O.2	1	UNK0	-0.322	
16	   O	135.314	136.928	141.072	O.2	1	UNK0	-0.319	
17	   O	135.619	133.844	139.124	O.2	1	UNK0	-0.382	
18	   O	132.581	134.991	139.459	O.2	1	UNK0	-0.398	
19	   O	138.079	136.282	141.424	O.2	1	UNK0	-0.390	
20	   O	134.040	131.909	142.882	O.2	1	UNK0	-0.376	
21	   O	134.057	137.370	142.927	O.2	1	UNK0	-0.341	
22	   O	135.227	135.208	144.310	O.2	1	UNK0	-0.385	
23	   H	137.430	132.767	146.117	 H	1	UNK0	0.174	
24	   H	138.505	133.909	145.512	 H	1	UNK0	0.174	
25	   H	136.051	131.528	144.346	 H	1	UNK0	0.180	
26	   H	138.510	134.170	142.958	 H	1	UNK0	0.178	
27	   H	136.542	133.838	139.412	 H	1	UNK0	0.210	
28	   H	132.237	134.440	138.743	 H	1	UNK0	0.209	
29	   H	137.615	137.130	141.454	 H	1	UNK0	0.210	
30	   H	133.246	132.321	142.511	 H	1	UNK0	0.212	
31	   H	133.271	137.599	142.413	 H	1	UNK0	0.215	
32	   H	135.933	134.754	144.788	 H	1	UNK0	0.210	
@<TRIPOS>BOND
1 1 4 1
2 1 23 1
3 1 24 1
4 2 5 1
5 2 25 1
6 3 26 1
7 2 4 1
8 3 4 1
9 5 6 1
10 5 20 2
11 6 7 1
12 6 9 1
13 3 7 1
14 7 8 1
15 7 13 1
16 8 10 1
17 8 22 2
18 9 11 1
19 9 15 2
20 10 16 2
21 10 21 2
22 11 12 1
23 11 14 1
24 11 17 2
25 12 13 1
26 13 19 2
27 14 18 2
28 10 15 2
29 12 16 2
30 17 27 1
31 18 28 1
32 19 29 1
33 20 30 1
34 21 31 1
35 22 32 1
@<TRIPOS>SUBSTRUCTURE
1	UNK0	1	GROUP	1 ****	UNK
