MODEL 1
REMARK VINA RESULT:      -8.4      0.000      0.000
REMARK  7 active torsions:
REMARK  status: ('A' for Active; 'I' for Inactive)
REMARK    1  A    between atoms: C_6  and  O_7 
REMARK    2  A    between atoms: C_10  and  O_11 
REMARK    3  A    between atoms: C_15  and  O_16 
REMARK    4  A    between atoms: C_18  and  O_19 
REMARK    5  A    between atoms: C_18  and  C_20 
REMARK    6  A    between atoms: C_20  and  O_21 
REMARK    7  A    between atoms: C_23  and  O_24 
ROOT
ATOM      1  N           0     137.745 133.320 145.384  0.00  0.00    -0.235 N 
ATOM      2  H           0     137.430 132.767 146.117  0.00  0.00     0.174 HD
ATOM      3  H           0     138.505 133.909 145.512  0.00  0.00     0.174 HD
ATOM      4  C           0     137.150 133.267 144.226  0.00  0.00     0.670 C 
ATOM      5  N           0     136.065 132.434 144.002  0.00  0.00    -0.200 N 
ATOM      6  C           0     134.935 132.969 143.223  0.00  0.00     0.244 C 
ATOM      7  C           0     135.489 133.608 141.946  0.00  0.00     0.101 C 
ATOM      8  C           0     136.532 134.664 142.334  0.00  0.00     0.119 C 
ATOM      9  C           0     135.817 135.763 143.132  0.00  0.00     0.243 C 
ATOM     10  N           0     137.568 134.047 143.154  0.00  0.00    -0.211 N 
ATOM     11  C           0     134.366 134.280 141.156  0.00  0.00     0.177 C 
ATOM     12  O           0     133.769 135.330 141.908  0.00  0.00    -0.322 OA
ATOM     13  C           0     134.727 136.330 142.213  0.00  0.00     0.311 C 
ATOM     14  O           0     135.314 136.928 141.072  0.00  0.00    -0.319 OA
ATOM     15  C           0     134.959 134.870 139.869  0.00  0.00     0.134 C 
ATOM     16  C           0     135.980 135.947 140.283  0.00  0.00     0.198 C 
ATOM     17  C           0     137.111 135.294 141.068  0.00  0.00     0.182 C 
ATOM     18  H           0     136.051 131.528 144.346  0.00  0.00     0.180 HD
ATOM     19  H           0     138.510 134.170 142.958  0.00  0.00     0.178 HD
ENDROOT
BRANCH  15  20
ATOM     20  O           0     135.619 133.844 139.124  0.00  0.00    -0.382 OA
ATOM     21  H           0     136.542 133.838 139.412  0.00  0.00     0.210 HD
ENDBRANCH  15  20
BRANCH  15  22
ATOM     22  C           0     133.846 135.492 139.023  0.00  0.00     0.207 C 
BRANCH  22  23
ATOM     23  O           0     132.581 134.991 139.459  0.00  0.00    -0.398 OA
ATOM     24  H           0     132.237 134.440 138.743  0.00  0.00     0.209 HD
ENDBRANCH  22  23
ENDBRANCH  15  22
BRANCH  17  25
ATOM     25  O           0     138.079 136.282 141.424  0.00  0.00    -0.390 OA
ATOM     26  H           0     137.615 137.130 141.454  0.00  0.00     0.210 HD
ENDBRANCH  17  25
BRANCH   6  27
ATOM     27  O           0     134.040 131.909 142.882  0.00  0.00    -0.376 OA
ATOM     28  H           0     133.246 132.321 142.511  0.00  0.00     0.212 HD
ENDBRANCH   6  27
BRANCH  13  29
ATOM     29  O           0     134.057 137.370 142.927  0.00  0.00    -0.341 OA
ATOM     30  H           0     133.271 137.599 142.413  0.00  0.00     0.215 HD
ENDBRANCH  13  29
BRANCH   9  31
ATOM     31  O           0     135.227 135.208 144.310  0.00  0.00    -0.385 OA
ATOM     32  H           0     135.933 134.754 144.788  0.00  0.00     0.210 HD
ENDBRANCH   9  31
TORSDOF 7
ENDMDL
MODEL 2
REMARK VINA RESULT:      -8.0      1.352      1.431
REMARK  7 active torsions:
REMARK  status: ('A' for Active; 'I' for Inactive)
REMARK    1  A    between atoms: C_6  and  O_7 
REMARK    2  A    between atoms: C_10  and  O_11 
REMARK    3  A    between atoms: C_15  and  O_16 
REMARK    4  A    between atoms: C_18  and  O_19 
REMARK    5  A    between atoms: C_18  and  C_20 
REMARK    6  A    between atoms: C_20  and  O_21 
REMARK    7  A    between atoms: C_23  and  O_24 
ROOT
ATOM      1  N           0     137.639 131.214 145.302  0.00  0.00    -0.235 N 
ATOM      2  H           0     137.250 130.520 145.857  0.00  0.00     0.174 HD
ATOM      3  H           0     138.466 131.643 145.570  0.00  0.00     0.174 HD
ATOM      4  C           0     137.052 131.566 144.193  0.00  0.00     0.670 C 
ATOM      5  N           0     135.872 130.972 143.773  0.00  0.00    -0.200 N 
ATOM      6  C           0     134.825 131.842 143.210  0.00  0.00     0.244 C 
ATOM      7  C           0     135.466 132.743 142.150  0.00  0.00     0.101 C 
ATOM      8  C           0     136.632 133.507 142.790  0.00  0.00     0.119 C 
ATOM      9  C           0     136.055 134.415 143.886  0.00  0.00     0.243 C 
ATOM     10  N           0     137.575 132.560 143.373  0.00  0.00    -0.211 N 
ATOM     11  C           0     134.445 133.745 141.613  0.00  0.00     0.177 C 
ATOM     12  O           0     133.980 134.605 142.647  0.00  0.00    -0.322 OA
ATOM     13  C           0     135.055 135.350 143.196  0.00  0.00     0.311 C 
ATOM     14  O           0     135.722 136.170 142.253  0.00  0.00    -0.319 OA
ATOM     15  C           0     135.119 134.598 140.529  0.00  0.00     0.134 C 
ATOM     16  C           0     136.265 135.378 141.201  0.00  0.00     0.198 C 
ATOM     17  C           0     137.297 134.394 141.738  0.00  0.00     0.182 C 
ATOM     18  H           0     135.740 130.014 143.847  0.00  0.00     0.180 HD
ATOM     19  H           0     138.526 132.616 143.195  0.00  0.00     0.178 HD
ENDROOT
BRANCH  15  20
ATOM     20  O           0     135.649 133.752 139.507  0.00  0.00    -0.382 OA
ATOM     21  H           0     136.395 133.275 139.896  0.00  0.00     0.210 HD
ENDBRANCH  15  20
BRANCH  15  22
ATOM     22  C           0     134.102 135.567 139.924  0.00  0.00     0.207 C 
BRANCH  22  23
ATOM     23  O           0     134.670 136.877 139.864  0.00  0.00    -0.398 OA
ATOM     24  H           0     134.622 137.243 140.758  0.00  0.00     0.209 HD
ENDBRANCH  22  23
ENDBRANCH  15  22
BRANCH  17  25
ATOM     25  O           0     138.380 135.111 142.332  0.00  0.00    -0.390 OA
ATOM     26  H           0     138.322 136.022 142.010  0.00  0.00     0.210 HD
ENDBRANCH  17  25
BRANCH   6  27
ATOM     27  O           0     133.805 131.042 142.608  0.00  0.00    -0.376 OA
ATOM     28  H           0     133.310 131.622 142.011  0.00  0.00     0.212 HD
ENDBRANCH   6  27
BRANCH  13  29
ATOM     29  O           0     134.516 136.220 144.193  0.00  0.00    -0.341 OA
ATOM     30  H           0     134.256 135.663 144.939  0.00  0.00     0.215 HD
ENDBRANCH  13  29
BRANCH   9  31
ATOM     31  O           0     135.390 133.627 144.875  0.00  0.00    -0.385 OA
ATOM     32  H           0     135.387 134.146 145.691  0.00  0.00     0.210 HD
ENDBRANCH   9  31
TORSDOF 7
ENDMDL
MODEL 3
REMARK VINA RESULT:      -7.6      2.535      4.759
REMARK  7 active torsions:
REMARK  status: ('A' for Active; 'I' for Inactive)
REMARK    1  A    between atoms: C_6  and  O_7 
REMARK    2  A    between atoms: C_10  and  O_11 
REMARK    3  A    between atoms: C_15  and  O_16 
REMARK    4  A    between atoms: C_18  and  O_19 
REMARK    5  A    between atoms: C_18  and  C_20 
REMARK    6  A    between atoms: C_20  and  O_21 
REMARK    7  A    between atoms: C_23  and  O_24 
ROOT
ATOM      1  N           0     132.804 135.592 138.393  0.00  0.00    -0.235 N 
ATOM      2  H           0     132.967 136.234 137.684  0.00  0.00     0.174 HD
ATOM      3  H           0     131.895 135.345 138.625  0.00  0.00     0.174 HD
ATOM      4  C           0     133.807 135.059 139.032  0.00  0.00     0.670 C 
ATOM      5  N           0     135.119 135.382 138.726  0.00  0.00    -0.200 N 
ATOM      6  C           0     136.057 135.585 139.844  0.00  0.00     0.244 C 
ATOM      7  C           0     135.928 134.398 140.803  0.00  0.00     0.101 C 
ATOM      8  C           0     134.462 134.270 141.236  0.00  0.00     0.119 C 
ATOM      9  C           0     134.088 135.540 142.014  0.00  0.00     0.243 C 
ATOM     10  N           0     133.615 134.140 140.057  0.00  0.00    -0.211 N 
ATOM     11  C           0     136.799 134.615 142.039  0.00  0.00     0.177 C 
ATOM     12  O           0     136.383 135.767 142.763  0.00  0.00    -0.322 OA
ATOM     13  C           0     135.045 135.617 143.209  0.00  0.00     0.311 C 
ATOM     14  O           0     134.848 134.505 144.065  0.00  0.00    -0.319 OA
ATOM     15  C           0     136.669 133.386 142.951  0.00  0.00     0.134 C 
ATOM     16  C           0     135.198 133.297 143.398  0.00  0.00     0.198 C 
ATOM     17  C           0     134.313 133.074 142.176  0.00  0.00     0.182 C 
ATOM     18  H           0     135.412 135.471 137.805  0.00  0.00     0.180 HD
ATOM     19  H           0     132.947 133.440 139.987  0.00  0.00     0.178 HD
ENDROOT
BRANCH  15  20
ATOM     20  O           0     137.024 132.206 142.228  0.00  0.00    -0.382 OA
ATOM     21  H           0     136.772 132.355 141.307  0.00  0.00     0.210 HD
ENDBRANCH  15  20
BRANCH  15  22
ATOM     22  C           0     137.583 133.544 144.168  0.00  0.00     0.207 C 
BRANCH  22  23
ATOM     23  O           0     136.930 133.019 145.325  0.00  0.00    -0.398 OA
ATOM     24  H           0     136.038 132.765 145.050  0.00  0.00     0.209 HD
ENDBRANCH  22  23
ENDBRANCH  15  22
BRANCH  17  25
ATOM     25  O           0     132.950 132.955 142.587  0.00  0.00    -0.390 OA
ATOM     26  H           0     132.686 133.819 142.932  0.00  0.00     0.210 HD
ENDBRANCH  17  25
BRANCH   6  27
ATOM     27  O           0     137.394 135.657 139.344  0.00  0.00    -0.376 OA
ATOM     28  H           0     137.467 134.993 138.643  0.00  0.00     0.212 HD
ENDBRANCH   6  27
BRANCH  13  29
ATOM     29  O           0     134.705 136.783 143.962  0.00  0.00    -0.341 OA
ATOM     30  H           0     133.842 137.080 143.643  0.00  0.00     0.215 HD
ENDBRANCH  13  29
BRANCH   9  31
ATOM     31  O           0     134.248 136.690 141.180  0.00  0.00    -0.385 OA
ATOM     32  H           0     133.369 136.926 140.857  0.00  0.00     0.210 HD
ENDBRANCH   9  31
TORSDOF 7
ENDMDL
MODEL 4
REMARK VINA RESULT:      -7.5      1.733      2.487
REMARK  7 active torsions:
REMARK  status: ('A' for Active; 'I' for Inactive)
REMARK    1  A    between atoms: C_6  and  O_7 
REMARK    2  A    between atoms: C_10  and  O_11 
REMARK    3  A    between atoms: C_15  and  O_16 
REMARK    4  A    between atoms: C_18  and  O_19 
REMARK    5  A    between atoms: C_18  and  C_20 
REMARK    6  A    between atoms: C_20  and  O_21 
REMARK    7  A    between atoms: C_23  and  O_24 
ROOT
ATOM      1  N           0     135.800 134.299 146.187  0.00  0.00    -0.235 N 
ATOM      2  H           0     136.125 133.541 146.699  0.00  0.00     0.174 HD
ATOM      3  H           0     135.217 134.952 146.604  0.00  0.00     0.174 HD
ATOM      4  C           0     136.152 134.440 144.940  0.00  0.00     0.670 C 
ATOM      5  N           0     136.988 133.531 144.312  0.00  0.00    -0.200 N 
ATOM      6  C           0     136.658 133.131 142.933  0.00  0.00     0.244 C 
ATOM      7  C           0     136.405 134.398 142.111  0.00  0.00     0.101 C 
ATOM      8  C           0     135.310 135.223 142.798  0.00  0.00     0.119 C 
ATOM      9  C           0     134.018 134.394 142.785  0.00  0.00     0.243 C 
ATOM     10  N           0     135.705 135.509 144.172  0.00  0.00    -0.211 N 
ATOM     11  C           0     135.947 134.035 140.699  0.00  0.00     0.177 C 
ATOM     12  O           0     134.717 133.320 140.728  0.00  0.00    -0.322 OA
ATOM     13  C           0     133.696 134.110 141.313  0.00  0.00     0.311 C 
ATOM     14  O           0     133.446 135.323 140.625  0.00  0.00    -0.319 OA
ATOM     15  C           0     135.745 135.331 139.901  0.00  0.00     0.134 C 
ATOM     16  C           0     134.621 136.127 140.592  0.00  0.00     0.198 C 
ATOM     17  C           0     135.063 136.503 142.001  0.00  0.00     0.182 C 
ATOM     18  H           0     137.766 133.170 144.764  0.00  0.00     0.180 HD
ATOM     19  H           0     135.662 136.407 144.536  0.00  0.00     0.178 HD
ENDROOT
BRANCH  15  20
ATOM     20  O           0     136.951 136.098 139.908  0.00  0.00    -0.382 OA
ATOM     21  H           0     137.181 136.265 138.985  0.00  0.00     0.210 HD
ENDBRANCH  15  20
BRANCH  15  22
ATOM     22  C           0     135.350 134.998 138.461  0.00  0.00     0.207 C 
BRANCH  22  23
ATOM     23  O           0     134.220 135.787 138.083  0.00  0.00    -0.398 OA
ATOM     24  H           0     133.480 135.176 137.966  0.00  0.00     0.209 HD
ENDBRANCH  22  23
ENDBRANCH  15  22
BRANCH  17  25
ATOM     25  O           0     134.039 137.272 142.635  0.00  0.00    -0.390 OA
ATOM     26  H           0     133.783 137.964 142.010  0.00  0.00     0.210 HD
ENDBRANCH  17  25
BRANCH   6  27
ATOM     27  O           0     137.749 132.400 142.369  0.00  0.00    -0.376 OA
ATOM     28  H           0     138.235 133.017 141.802  0.00  0.00     0.212 HD
ENDBRANCH   6  27
BRANCH  13  29
ATOM     29  O           0     132.484 133.354 141.272  0.00  0.00    -0.341 OA
ATOM     30  H           0     132.514 132.739 142.017  0.00  0.00     0.215 HD
ENDBRANCH  13  29
BRANCH   9  31
ATOM     31  O           0     134.215 133.167 143.491  0.00  0.00    -0.385 OA
ATOM     32  H           0     134.516 132.517 142.843  0.00  0.00     0.210 HD
ENDBRANCH   9  31
TORSDOF 7
ENDMDL
MODEL 5
REMARK VINA RESULT:      -7.0      1.786      2.814
REMARK  7 active torsions:
REMARK  status: ('A' for Active; 'I' for Inactive)
REMARK    1  A    between atoms: C_6  and  O_7 
REMARK    2  A    between atoms: C_10  and  O_11 
REMARK    3  A    between atoms: C_15  and  O_16 
REMARK    4  A    between atoms: C_18  and  O_19 
REMARK    5  A    between atoms: C_18  and  C_20 
REMARK    6  A    between atoms: C_20  and  O_21 
REMARK    7  A    between atoms: C_23  and  O_24 
ROOT
ATOM      1  N           0     133.988 132.484 143.594  0.00  0.00    -0.235 N 
ATOM      2  H           0     133.106 132.093 143.490  0.00  0.00     0.174 HD
ATOM      3  H           0     134.426 132.472 144.460  0.00  0.00     0.174 HD
ATOM      4  C           0     134.587 133.023 142.569  0.00  0.00     0.670 C 
ATOM      5  N           0     133.996 133.056 141.316  0.00  0.00    -0.200 N 
ATOM      6  C           0     134.117 134.296 140.530  0.00  0.00     0.244 C 
ATOM      7  C           0     135.589 134.720 140.523  0.00  0.00     0.101 C 
ATOM      8  C           0     136.071 134.854 141.973  0.00  0.00     0.119 C 
ATOM      9  C           0     135.264 135.979 142.637  0.00  0.00     0.243 C 
ATOM     10  N           0     135.847 133.598 142.679  0.00  0.00    -0.211 N 
ATOM     11  C           0     135.752 136.064 139.815  0.00  0.00     0.177 C 
ATOM     12  O           0     135.038 137.091 140.494  0.00  0.00    -0.322 OA
ATOM     13  C           0     135.528 137.247 141.816  0.00  0.00     0.311 C 
ATOM     14  O           0     136.899 137.594 141.880  0.00  0.00    -0.319 OA
ATOM     15  C           0     137.244 136.430 139.798  0.00  0.00     0.134 C 
ATOM     16  C           0     137.696 136.589 141.262  0.00  0.00     0.198 C 
ATOM     17  C           0     137.545 135.255 141.983  0.00  0.00     0.182 C 
ATOM     18  H           0     133.519 132.287 140.967  0.00  0.00     0.180 HD
ATOM     19  H           0     136.549 133.177 143.200  0.00  0.00     0.178 HD
ENDROOT
BRANCH  15  20
ATOM     20  O           0     137.992 135.385 139.174  0.00  0.00    -0.382 OA
ATOM     21  H           0     138.296 135.728 138.323  0.00  0.00     0.210 HD
ENDBRANCH  15  20
BRANCH  15  22
ATOM     22  C           0     137.447 137.741 139.036  0.00  0.00     0.207 C 
BRANCH  22  23
ATOM     23  O           0     137.111 137.548 137.661  0.00  0.00    -0.398 OA
ATOM     24  H           0     136.638 138.342 137.375  0.00  0.00     0.209 HD
ENDBRANCH  22  23
ENDBRANCH  15  22
BRANCH  17  25
ATOM     25  O           0     137.997 135.386 143.332  0.00  0.00    -0.390 OA
ATOM     26  H           0     138.789 134.836 143.416  0.00  0.00     0.210 HD
ENDBRANCH  17  25
BRANCH   6  27
ATOM     27  O           0     133.678 134.061 139.190  0.00  0.00    -0.376 OA
ATOM     28  H           0     132.710 134.087 139.205  0.00  0.00     0.212 HD
ENDBRANCH   6  27
BRANCH  13  29
ATOM     29  O           0     134.801 138.316 142.425  0.00  0.00    -0.341 OA
ATOM     30  H           0     134.979 139.108 141.900  0.00  0.00     0.215 HD
ENDBRANCH  13  29
BRANCH   9  31
ATOM     31  O           0     133.871 135.661 142.617  0.00  0.00    -0.385 OA
ATOM     32  H           0     133.438 136.258 143.241  0.00  0.00     0.210 HD
ENDBRANCH   9  31
TORSDOF 7
ENDMDL
MODEL 6
REMARK VINA RESULT:      -6.9      3.617      6.406
REMARK  7 active torsions:
REMARK  status: ('A' for Active; 'I' for Inactive)
REMARK    1  A    between atoms: C_6  and  O_7 
REMARK    2  A    between atoms: C_10  and  O_11 
REMARK    3  A    between atoms: C_15  and  O_16 
REMARK    4  A    between atoms: C_18  and  O_19 
REMARK    5  A    between atoms: C_18  and  C_20 
REMARK    6  A    between atoms: C_20  and  O_21 
REMARK    7  A    between atoms: C_23  and  O_24 
ROOT
ATOM      1  N           0     133.584 131.796 142.355  0.00  0.00    -0.235 N 
ATOM      2  H           0     133.539 132.265 141.506  0.00  0.00     0.174 HD
ATOM      3  H           0     132.773 131.469 142.773  0.00  0.00     0.174 HD
ATOM      4  C           0     134.737 131.603 142.931  0.00  0.00     0.670 C 
ATOM      5  N           0     135.919 132.051 142.363  0.00  0.00    -0.200 N 
ATOM      6  C           0     136.920 132.668 143.251  0.00  0.00     0.244 C 
ATOM      7  C           0     137.132 131.744 144.453  0.00  0.00     0.101 C 
ATOM      8  C           0     135.777 131.489 145.126  0.00  0.00     0.119 C 
ATOM      9  C           0     135.254 132.831 145.656  0.00  0.00     0.243 C 
ATOM     10  N           0     134.843 130.942 144.149  0.00  0.00    -0.211 N 
ATOM     11  C           0     138.078 132.391 145.463  0.00  0.00     0.177 C 
ATOM     12  O           0     137.531 133.602 145.974  0.00  0.00    -0.322 OA
ATOM     13  C           0     136.307 133.350 146.644  0.00  0.00     0.311 C 
ATOM     14  O           0     136.427 132.462 147.740  0.00  0.00    -0.319 OA
ATOM     15  C           0     138.292 131.416 146.630  0.00  0.00     0.134 C 
ATOM     16  C           0     136.926 131.201 147.307  0.00  0.00     0.198 C 
ATOM     17  C           0     135.969 130.549 146.315  0.00  0.00     0.182 C 
ATOM     18  H           0     136.083 131.960 141.411  0.00  0.00     0.180 HD
ATOM     19  H           0     134.320 130.147 144.337  0.00  0.00     0.178 HD
ENDROOT
BRANCH  15  20
ATOM     20  O           0     138.785 130.170 146.135  0.00  0.00    -0.382 OA
ATOM     21  H           0     138.035 129.560 146.116  0.00  0.00     0.210 HD
ENDBRANCH  15  20
BRANCH  15  22
ATOM     22  C           0     139.289 132.010 147.626  0.00  0.00     0.207 C 
BRANCH  22  23
ATOM     23  O           0     140.215 132.847 146.931  0.00  0.00    -0.398 OA
ATOM     24  H           0     140.700 133.346 147.603  0.00  0.00     0.209 HD
ENDBRANCH  22  23
ENDBRANCH  15  22
BRANCH  17  25
ATOM     25  O           0     134.710 130.313 146.948  0.00  0.00    -0.390 OA
ATOM     26  H           0     134.071 130.905 146.526  0.00  0.00     0.210 HD
ENDBRANCH  17  25
BRANCH   6  27
ATOM     27  O           0     138.153 132.832 142.546  0.00  0.00    -0.376 OA
ATOM     28  H           0     138.861 132.778 143.205  0.00  0.00     0.212 HD
ENDBRANCH   6  27
BRANCH  13  29
ATOM     29  O           0     135.835 134.593 147.167  0.00  0.00    -0.341 OA
ATOM     30  H           0     134.901 134.661 146.927  0.00  0.00     0.215 HD
ENDBRANCH  13  29
BRANCH   9  31
ATOM     31  O           0     135.094 133.756 144.578  0.00  0.00    -0.385 OA
ATOM     32  H           0     134.267 134.230 144.736  0.00  0.00     0.210 HD
ENDBRANCH   9  31
TORSDOF 7
ENDMDL
MODEL 7
REMARK VINA RESULT:      -6.6      2.601      5.068
REMARK  7 active torsions:
REMARK  status: ('A' for Active; 'I' for Inactive)
REMARK    1  A    between atoms: C_6  and  O_7 
REMARK    2  A    between atoms: C_10  and  O_11 
REMARK    3  A    between atoms: C_15  and  O_16 
REMARK    4  A    between atoms: C_18  and  O_19 
REMARK    5  A    between atoms: C_18  and  C_20 
REMARK    6  A    between atoms: C_20  and  O_21 
REMARK    7  A    between atoms: C_23  and  O_24 
ROOT
ATOM      1  N           0     136.065 136.519 140.831  0.00  0.00    -0.235 N 
ATOM      2  H           0     136.803 137.076 140.537  0.00  0.00     0.174 HD
ATOM      3  H           0     135.154 136.846 140.766  0.00  0.00     0.174 HD
ATOM      4  C           0     136.297 135.330 141.311  0.00  0.00     0.670 C 
ATOM      5  N           0     137.584 134.826 141.415  0.00  0.00    -0.200 N 
ATOM      6  C           0     137.938 134.089 142.641  0.00  0.00     0.244 C 
ATOM      7  C           0     136.850 133.046 142.908  0.00  0.00     0.101 C 
ATOM      8  C           0     135.492 133.755 142.979  0.00  0.00     0.119 C 
ATOM      9  C           0     135.522 134.712 144.178  0.00  0.00     0.243 C 
ATOM     10  N           0     135.268 134.505 141.749  0.00  0.00    -0.211 N 
ATOM     11  C           0     137.111 132.330 144.232  0.00  0.00     0.177 C 
ATOM     12  O           0     137.073 133.242 145.323  0.00  0.00    -0.322 OA
ATOM     13  C           0     135.796 133.852 145.417  0.00  0.00     0.311 C 
ATOM     14  O           0     134.737 132.933 145.617  0.00  0.00    -0.319 OA
ATOM     15  C           0     136.020 131.268 144.438  0.00  0.00     0.134 C 
ATOM     16  C           0     134.672 132.006 144.538  0.00  0.00     0.198 C 
ATOM     17  C           0     134.391 132.723 143.222  0.00  0.00     0.182 C 
ATOM     18  H           0     138.230 134.953 140.704  0.00  0.00     0.180 HD
ATOM     19  H           0     134.439 134.428 141.252  0.00  0.00     0.178 HD
ENDROOT
BRANCH  15  20
ATOM     20  O           0     135.998 130.374 143.324  0.00  0.00    -0.382 OA
ATOM     21  H           0     136.914 130.118 143.151  0.00  0.00     0.210 HD
ENDBRANCH  15  20
BRANCH  15  22
ATOM     22  C           0     136.293 130.488 145.725  0.00  0.00     0.207 C 
BRANCH  22  23
ATOM     23  O           0     137.703 130.413 145.946  0.00  0.00    -0.398 OA
ATOM     24  H           0     137.830 129.954 146.788  0.00  0.00     0.209 HD
ENDBRANCH  22  23
ENDBRANCH  15  22
BRANCH  17  25
ATOM     25  O           0     133.125 133.380 143.294  0.00  0.00    -0.390 OA
ATOM     26  H           0     133.109 134.034 142.581  0.00  0.00     0.210 HD
ENDBRANCH  17  25
BRANCH   6  27
ATOM     27  O           0     139.198 133.437 142.464  0.00  0.00    -0.376 OA
ATOM     28  H           0     139.876 134.127 142.493  0.00  0.00     0.212 HD
ENDBRANCH   6  27
BRANCH  13  29
ATOM     29  O           0     135.811 134.719 146.553  0.00  0.00    -0.341 OA
ATOM     30  H           0     136.273 135.524 146.283  0.00  0.00     0.215 HD
ENDBRANCH  13  29
BRANCH   9  31
ATOM     31  O           0     136.564 135.676 144.009  0.00  0.00    -0.385 OA
ATOM     32  H           0     136.223 136.355 143.412  0.00  0.00     0.210 HD
ENDBRANCH   9  31
TORSDOF 7
ENDMDL
MODEL 8
REMARK VINA RESULT:      -6.4      8.463     10.052
REMARK  7 active torsions:
REMARK  status: ('A' for Active; 'I' for Inactive)
REMARK    1  A    between atoms: C_6  and  O_7 
REMARK    2  A    between atoms: C_10  and  O_11 
REMARK    3  A    between atoms: C_15  and  O_16 
REMARK    4  A    between atoms: C_18  and  O_19 
REMARK    5  A    between atoms: C_18  and  C_20 
REMARK    6  A    between atoms: C_20  and  O_21 
REMARK    7  A    between atoms: C_23  and  O_24 
ROOT
ATOM      1  N           0     129.914 137.740 133.130  0.00  0.00    -0.235 N 
ATOM      2  H           0     130.250 138.624 133.347  0.00  0.00     0.174 HD
ATOM      3  H           0     128.959 137.591 133.044  0.00  0.00     0.174 HD
ATOM      4  C           0     130.746 136.753 132.949  0.00  0.00     0.670 C 
ATOM      5  N           0     132.116 136.927 133.059  0.00  0.00    -0.200 N 
ATOM      6  C           0     132.889 135.884 133.756  0.00  0.00     0.244 C 
ATOM      7  C           0     132.490 134.522 133.180  0.00  0.00     0.101 C 
ATOM      8  C           0     130.970 134.358 133.307  0.00  0.00     0.119 C 
ATOM      9  C           0     130.620 134.353 134.801  0.00  0.00     0.243 C 
ATOM     10  N           0     130.303 135.472 132.642  0.00  0.00    -0.211 N 
ATOM     11  C           0     133.181 133.396 133.947  0.00  0.00     0.177 C 
ATOM     12  O           0     132.784 133.389 135.314  0.00  0.00    -0.322 OA
ATOM     13  C           0     131.386 133.181 135.425  0.00  0.00     0.311 C 
ATOM     14  O           0     130.944 131.956 134.867  0.00  0.00    -0.319 OA
ATOM     15  C           0     132.784 132.055 133.312  0.00  0.00     0.134 C 
ATOM     16  C           0     131.260 131.900 133.479  0.00  0.00     0.198 C 
ATOM     17  C           0     130.553 133.013 132.715  0.00  0.00     0.182 C 
ATOM     18  H           0     132.553 137.709 132.687  0.00  0.00     0.180 HD
ATOM     19  H           0     129.584 135.326 132.008  0.00  0.00     0.178 HD
ENDROOT
BRANCH  15  20
ATOM     20  O           0     133.117 132.059 131.923  0.00  0.00    -0.382 OA
ATOM     21  H           0     132.288 132.161 131.436  0.00  0.00     0.210 HD
ENDBRANCH  15  20
BRANCH  15  22
ATOM     22  C           0     133.513 130.911 134.019  0.00  0.00     0.207 C 
BRANCH  22  23
ATOM     23  O           0     134.737 131.397 134.572  0.00  0.00    -0.398 OA
ATOM     24  H           0     135.360 131.487 133.838  0.00  0.00     0.209 HD
ENDBRANCH  22  23
ENDBRANCH  15  22
BRANCH  17  25
ATOM     25  O           0     129.139 132.854 132.835  0.00  0.00    -0.390 OA
ATOM     26  H           0     128.734 133.503 132.243  0.00  0.00     0.210 HD
ENDBRANCH  17  25
BRANCH   6  27
ATOM     27  O           0     134.287 136.102 133.551  0.00  0.00    -0.376 OA
ATOM     28  H           0     134.746 135.701 134.303  0.00  0.00     0.212 HD
ENDBRANCH   6  27
BRANCH  13  29
ATOM     29  O           0     131.062 133.142 136.816  0.00  0.00    -0.341 OA
ATOM     30  H           0     131.778 132.666 137.256  0.00  0.00     0.215 HD
ENDBRANCH  13  29
BRANCH   9  31
ATOM     31  O           0     131.026 135.583 135.404  0.00  0.00    -0.385 OA
ATOM     32  H           0     131.881 135.816 135.017  0.00  0.00     0.210 HD
ENDBRANCH   9  31
TORSDOF 7
ENDMDL
MODEL 9
REMARK VINA RESULT:      -6.4      3.321      6.215
REMARK  7 active torsions:
REMARK  status: ('A' for Active; 'I' for Inactive)
REMARK    1  A    between atoms: C_6  and  O_7 
REMARK    2  A    between atoms: C_10  and  O_11 
REMARK    3  A    between atoms: C_15  and  O_16 
REMARK    4  A    between atoms: C_18  and  O_19 
REMARK    5  A    between atoms: C_18  and  C_20 
REMARK    6  A    between atoms: C_20  and  O_21 
REMARK    7  A    between atoms: C_23  and  O_24 
ROOT
ATOM      1  N           0     136.252 134.171 141.364  0.00  0.00    -0.235 N 
ATOM      2  H           0     136.854 134.721 140.837  0.00  0.00     0.174 HD
ATOM      3  H           0     135.298 134.196 141.196  0.00  0.00     0.174 HD
ATOM      4  C           0     136.729 133.396 142.298  0.00  0.00     0.670 C 
ATOM      5  N           0     138.087 133.329 142.565  0.00  0.00    -0.200 N 
ATOM      6  C           0     138.510 133.292 143.976  0.00  0.00     0.244 C 
ATOM      7  C           0     137.691 132.217 144.697  0.00  0.00     0.101 C 
ATOM      8  C           0     136.200 132.518 144.502  0.00  0.00     0.119 C 
ATOM      9  C           0     135.898 133.863 145.178  0.00  0.00     0.243 C 
ATOM     10  N           0     135.900 132.598 143.078  0.00  0.00    -0.211 N 
ATOM     11  C           0     138.011 132.215 146.191  0.00  0.00     0.177 C 
ATOM     12  O           0     137.663 133.458 146.790  0.00  0.00    -0.322 OA
ATOM     13  C           0     136.273 133.703 146.656  0.00  0.00     0.311 C 
ATOM     14  O           0     135.457 132.716 147.262  0.00  0.00    -0.319 OA
ATOM     15  C           0     137.200 131.099 146.864  0.00  0.00     0.134 C 
ATOM     16  C           0     135.709 131.439 146.683  0.00  0.00     0.198 C 
ATOM     17  C           0     135.369 131.440 145.197  0.00  0.00     0.182 C 
ATOM     18  H           0     138.738 133.306 141.847  0.00  0.00     0.180 HD
ATOM     19  H           0     135.158 132.111 142.688  0.00  0.00     0.178 HD
ENDROOT
BRANCH  15  20
ATOM     20  O           0     137.487 129.847 146.239  0.00  0.00    -0.382 OA
ATOM     21  H           0     136.735 129.640 145.667  0.00  0.00     0.210 HD
ENDBRANCH  15  20
BRANCH  15  22
ATOM     22  C           0     137.550 131.029 148.352  0.00  0.00     0.207 C 
BRANCH  22  23
ATOM     23  O           0     136.373 130.726 149.103  0.00  0.00    -0.398 OA
ATOM     24  H           0     136.475 129.821 149.429  0.00  0.00     0.209 HD
ENDBRANCH  22  23
ENDBRANCH  15  22
BRANCH  17  25
ATOM     25  O           0     133.979 131.719 145.023  0.00  0.00    -0.390 OA
ATOM     26  H           0     133.647 132.026 145.878  0.00  0.00     0.210 HD
ENDBRANCH  17  25
BRANCH   6  27
ATOM     27  O           0     139.901 132.971 144.054  0.00  0.00    -0.376 OA
ATOM     28  H           0     140.040 132.195 143.493  0.00  0.00     0.212 HD
ENDBRANCH   6  27
BRANCH  13  29
ATOM     29  O           0     135.984 134.938 147.313  0.00  0.00    -0.341 OA
ATOM     30  H           0     135.022 135.003 147.376  0.00  0.00     0.215 HD
ENDBRANCH  13  29
BRANCH   9  31
ATOM     31  O           0     136.684 134.898 144.581  0.00  0.00    -0.385 OA
ATOM     32  H           0     137.609 134.688 144.765  0.00  0.00     0.210 HD
ENDBRANCH   9  31
TORSDOF 7
ENDMDL
