# created with PyMOL 2.3.4
@<TRIPOS>MOLECULE
ligand_out_0001
30 32 1                 
SMALL
USER_CHARGES
@<TRIPOS>ATOM
1	   N	134.896	136.703	143.084	N.3	1	UNK0	-0.235	
2	   N	133.765	134.643	142.974	N.3	1	UNK0	-0.218	
3	   N	134.182	132.103	144.667	N.3	1	UNK0	-0.216	
4	   N	134.923	131.676	146.873	N.3	1	UNK0	-0.235	
5	   N	136.115	133.064	145.374	N.3	1	UNK0	-0.191	
6	   N	136.009	134.711	143.606	N.3	1	UNK0	-0.183	
7	   C	134.894	135.406	143.218	C.3	1	UNK0	0.672	
8	   C	133.947	133.264	142.532	C.3	1	UNK0	0.151	
9	   C	134.890	132.482	143.426	C.3	1	UNK0	0.180	
10	   C	135.065	132.246	145.709	C.3	1	UNK0	0.670	
11	   C	136.085	133.283	143.919	C.3	1	UNK0	0.217	
12	   C	137.388	135.213	143.739	C.3	1	UNK0	0.150	
13	   C	138.268	134.076	143.167	C.3	1	UNK0	0.093	
14	   C	137.402	132.797	143.290	C.3	1	UNK0	0.209	
15	   C	134.509	133.270	141.110	C.2	1	UNK0	0.206	
16	   C	133.422	134.840	139.623	C.2	1	UNK0	0.254	
17	   C	133.670	135.010	138.146	C.3	1	UNK0	0.126	
18	   O	133.455	133.617	140.174	O.2	1	UNK0	-0.320	
19	   O	133.193	135.807	140.312	O.co2	1	UNK0	-0.266	
20	   O	138.042	131.841	144.137	O.2	1	UNK0	-0.362	
21	   O	137.157	132.235	141.998	O.2	1	UNK0	-0.362	
22	   H	134.090	137.163	142.805	 H	1	UNK0	0.174	
23	   H	135.703	137.208	143.269	 H	1	UNK0	0.174	
24	   H	134.155	131.108	147.045	 H	1	UNK0	0.174	
25	   H	135.585	131.819	147.567	 H	1	UNK0	0.174	
26	   H	132.877	135.015	143.093	 H	1	UNK0	0.178	
27	   H	133.260	131.807	144.733	 H	1	UNK0	0.178	
28	   H	136.768	133.431	145.991	 H	1	UNK0	0.180	
29	   H	138.571	132.341	144.772	 H	1	UNK0	0.213	
30	   H	136.690	131.401	142.141	 H	1	UNK0	0.213	
@<TRIPOS>BOND
1 1 7 1
2 1 22 1
3 1 23 1
4 2 8 1
5 2 26 1
6 3 10 1
7 3 27 1
8 4 24 1
9 4 25 1
10 5 28 1
11 6 12 1
12 2 7 1
13 6 7 1
14 8 9 1
15 8 15 1
16 3 9 1
17 9 11 1
18 4 10 1
19 5 10 1
20 5 11 1
21 6 11 1
22 11 14 1
23 12 13 1
24 13 14 1
25 14 20 2
26 14 21 2
27 15 18 2
28 16 17 1
29 16 19 2
30 16 18 2
31 20 29 1
32 21 30 1
@<TRIPOS>SUBSTRUCTURE
1	UNK0	1	GROUP	1 ****	UNK
