# created with PyMOL 2.3.4
@<TRIPOS>MOLECULE
ligand_out_0001
30 32 1                 
SMALL
USER_CHARGES
@<TRIPOS>ATOM
1	   N	137.820	134.876	142.949	N.3	1	UNK0	-0.235	
2	   N	135.496	135.244	142.946	N.3	1	UNK0	-0.218	
3	   N	133.529	135.265	145.317	N.3	1	UNK0	-0.216	
4	   N	133.698	135.797	147.616	N.3	1	UNK0	-0.235	
5	   N	135.206	134.332	146.533	N.3	1	UNK0	-0.191	
6	   N	136.451	133.816	144.524	N.3	1	UNK0	-0.183	
7	   C	136.640	134.653	143.456	C.3	1	UNK0	0.672	
8	   C	134.228	134.536	143.094	C.3	1	UNK0	0.151	
9	   C	133.966	134.097	144.522	C.3	1	UNK0	0.180	
10	   C	134.119	135.169	146.554	C.3	1	UNK0	0.670	
11	   C	135.202	133.600	145.256	C.3	1	UNK0	0.217	
12	   C	137.428	132.903	145.142	C.3	1	UNK0	0.150	
13	   C	136.617	131.620	145.445	C.3	1	UNK0	0.093	
14	   C	135.141	132.086	145.522	C.3	1	UNK0	0.209	
15	   C	134.245	133.299	142.195	C.2	1	UNK0	0.206	
16	   C	133.004	134.097	140.276	C.2	1	UNK0	0.254	
17	   C	131.835	133.146	140.255	C.3	1	UNK0	0.126	
18	   O	134.175	133.711	140.804	O.2	1	UNK0	-0.320	
19	   O	132.886	135.209	139.816	O.co2	1	UNK0	-0.266	
20	   O	134.603	131.824	146.818	O.2	1	UNK0	-0.362	
21	   O	134.361	131.436	144.516	O.2	1	UNK0	-0.362	
22	   H	137.917	135.472	142.190	 H	1	UNK0	0.174	
23	   H	138.601	134.449	143.333	 H	1	UNK0	0.174	
24	   H	132.921	136.375	147.562	 H	1	UNK0	0.174	
25	   H	134.161	135.685	148.460	 H	1	UNK0	0.174	
26	   H	135.537	136.107	142.503	 H	1	UNK0	0.178	
27	   H	132.933	135.970	145.019	 H	1	UNK0	0.178	
28	   H	135.863	134.237	147.240	 H	1	UNK0	0.180	
29	   H	134.223	130.935	146.789	 H	1	UNK0	0.213	
30	   H	134.316	132.042	143.763	 H	1	UNK0	0.213	
@<TRIPOS>BOND
1 1 7 1
2 1 22 1
3 1 23 1
4 2 8 1
5 2 26 1
6 3 10 1
7 3 27 1
8 4 24 1
9 4 25 1
10 5 28 1
11 6 12 1
12 2 7 1
13 6 7 1
14 8 9 1
15 8 15 1
16 3 9 1
17 9 11 1
18 4 10 1
19 5 10 1
20 5 11 1
21 6 11 1
22 11 14 1
23 12 13 1
24 13 14 1
25 14 20 2
26 14 21 2
27 15 18 2
28 16 17 1
29 16 19 2
30 16 18 2
31 20 29 1
32 21 30 1
@<TRIPOS>SUBSTRUCTURE
1	UNK0	1	GROUP	1 ****	UNK
