MODEL 1
REMARK VINA RESULT:      -7.3      0.000      0.000
REMARK  5 active torsions:
REMARK  status: ('A' for Active; 'I' for Inactive)
REMARK    1  A    between atoms: C_6  and  C_7 
REMARK    2  A    between atoms: C_7  and  O_8 
REMARK    3  A    between atoms: O_8  and  C_9 
REMARK    4  A    between atoms: C_23  and  O_24 
REMARK    5  A    between atoms: C_23  and  O_25 
ROOT
ATOM      1  N           0     137.820 134.876 142.949  0.00  0.00    -0.235 N 
ATOM      2  H           0     137.917 135.472 142.190  0.00  0.00     0.174 HD
ATOM      3  H           0     138.601 134.449 143.333  0.00  0.00     0.174 HD
ATOM      4  C           0     136.640 134.653 143.456  0.00  0.00     0.672 C 
ATOM      5  N           0     135.496 135.244 142.946  0.00  0.00    -0.218 N 
ATOM      6  C           0     134.228 134.536 143.094  0.00  0.00     0.151 C 
ATOM      7  C           0     133.966 134.097 144.522  0.00  0.00     0.180 C 
ATOM      8  N           0     133.529 135.265 145.317  0.00  0.00    -0.216 N 
ATOM      9  C           0     134.119 135.169 146.554  0.00  0.00     0.670 C 
ATOM     10  N           0     133.698 135.797 147.616  0.00  0.00    -0.235 N 
ATOM     11  H           0     132.921 136.375 147.562  0.00  0.00     0.174 HD
ATOM     12  H           0     134.161 135.685 148.460  0.00  0.00     0.174 HD
ATOM     13  C           0     135.202 133.600 145.256  0.00  0.00     0.217 C 
ATOM     14  N           0     135.206 134.332 146.533  0.00  0.00    -0.191 N 
ATOM     15  N           0     136.451 133.816 144.524  0.00  0.00    -0.183 N 
ATOM     16  C           0     137.428 132.903 145.142  0.00  0.00     0.150 C 
ATOM     17  C           0     136.617 131.620 145.445  0.00  0.00     0.093 C 
ATOM     18  C           0     135.141 132.086 145.522  0.00  0.00     0.209 C 
ATOM     19  H           0     135.537 136.107 142.503  0.00  0.00     0.178 HD
ATOM     20  H           0     132.933 135.970 145.019  0.00  0.00     0.178 HD
ATOM     21  H           0     135.863 134.237 147.240  0.00  0.00     0.180 HD
ENDROOT
BRANCH   6  22
ATOM     22  C           0     134.245 133.299 142.195  0.00  0.00     0.206 C 
BRANCH  22  23
ATOM     23  O           0     134.175 133.711 140.804  0.00  0.00    -0.320 OA
BRANCH  23  24
ATOM     24  C           0     133.004 134.097 140.276  0.00  0.00     0.254 C 
ATOM     25  C           0     131.835 133.146 140.255  0.00  0.00     0.126 C 
ATOM     26  O           0     132.886 135.209 139.816  0.00  0.00    -0.266 OA
ENDBRANCH  23  24
ENDBRANCH  22  23
ENDBRANCH   6  22
BRANCH  18  27
ATOM     27  O           0     134.603 131.824 146.818  0.00  0.00    -0.362 OA
ATOM     28  H           0     134.223 130.935 146.789  0.00  0.00     0.213 HD
ENDBRANCH  18  27
BRANCH  18  29
ATOM     29  O           0     134.361 131.436 144.516  0.00  0.00    -0.362 OA
ATOM     30  H           0     134.316 132.042 143.763  0.00  0.00     0.213 HD
ENDBRANCH  18  29
TORSDOF 5
ENDMDL
MODEL 2
REMARK VINA RESULT:      -7.3      2.088      2.488
REMARK  5 active torsions:
REMARK  status: ('A' for Active; 'I' for Inactive)
REMARK    1  A    between atoms: C_6  and  C_7 
REMARK    2  A    between atoms: C_7  and  O_8 
REMARK    3  A    between atoms: O_8  and  C_9 
REMARK    4  A    between atoms: C_23  and  O_24 
REMARK    5  A    between atoms: C_23  and  O_25 
ROOT
ATOM      1  N           0     135.252 136.753 143.178  0.00  0.00    -0.235 N 
ATOM      2  H           0     134.501 137.327 142.959  0.00  0.00     0.174 HD
ATOM      3  H           0     136.143 137.128 143.249  0.00  0.00     0.174 HD
ATOM      4  C           0     135.061 135.480 143.383  0.00  0.00     0.672 C 
ATOM      5  N           0     133.807 134.900 143.300  0.00  0.00    -0.218 N 
ATOM      6  C           0     133.720 133.494 142.919  0.00  0.00     0.151 C 
ATOM      7  C           0     134.623 132.605 143.752  0.00  0.00     0.180 C 
ATOM      8  N           0     134.006 132.393 145.079  0.00  0.00    -0.216 N 
ATOM      9  C           0     135.012 132.431 146.014  0.00  0.00     0.670 C 
ATOM     10  N           0     134.913 131.936 147.217  0.00  0.00    -0.235 N 
ATOM     11  H           0     134.089 131.507 147.498  0.00  0.00     0.174 HD
ATOM     12  H           0     135.662 131.996 147.829  0.00  0.00     0.174 HD
ATOM     13  C           0     135.976 133.220 144.073  0.00  0.00     0.217 C 
ATOM     14  N           0     136.133 133.055 145.527  0.00  0.00    -0.191 N 
ATOM     15  N           0     136.090 134.629 143.691  0.00  0.00    -0.183 N 
ATOM     16  C           0     137.537 134.906 143.652  0.00  0.00     0.150 C 
ATOM     17  C           0     138.158 133.621 143.056  0.00  0.00     0.093 C 
ATOM     18  C           0     137.122 132.504 143.338  0.00  0.00     0.209 C 
ATOM     19  H           0     133.007 135.415 143.490  0.00  0.00     0.178 HD
ATOM     20  H           0     133.063 132.252 145.257  0.00  0.00     0.178 HD
ATOM     21  H           0     136.900 133.335 146.051  0.00  0.00     0.180 HD
ENDROOT
BRANCH   6  22
ATOM     22  C           0     134.114 133.355 141.448  0.00  0.00     0.206 C 
BRANCH  22  23
ATOM     23  O           0     133.045 133.866 140.609  0.00  0.00    -0.320 OA
BRANCH  23  24
ATOM     24  C           0     133.225 134.995 139.906  0.00  0.00     0.254 C 
ATOM     25  C           0     133.239 134.951 138.400  0.00  0.00     0.126 C 
ATOM     26  O           0     133.376 136.047 140.481  0.00  0.00    -0.266 OA
ENDBRANCH  23  24
ENDBRANCH  22  23
ENDBRANCH   6  22
BRANCH  18  27
ATOM     27  O           0     137.694 131.490 144.166  0.00  0.00    -0.362 OA
ATOM     28  H           0     137.118 131.400 144.937  0.00  0.00     0.213 HD
ENDBRANCH  18  27
BRANCH  18  29
ATOM     29  O           0     136.650 131.940 142.113  0.00  0.00    -0.362 OA
ATOM     30  H           0     136.407 131.024 142.302  0.00  0.00     0.213 HD
ENDBRANCH  18  29
TORSDOF 5
ENDMDL
MODEL 3
REMARK VINA RESULT:      -6.8      2.440      4.659
REMARK  5 active torsions:
REMARK  status: ('A' for Active; 'I' for Inactive)
REMARK    1  A    between atoms: C_6  and  C_7 
REMARK    2  A    between atoms: C_7  and  O_8 
REMARK    3  A    between atoms: O_8  and  C_9 
REMARK    4  A    between atoms: C_23  and  O_24 
REMARK    5  A    between atoms: C_23  and  O_25 
ROOT
ATOM      1  N           0     133.909 136.071 141.952  0.00  0.00    -0.235 N 
ATOM      2  H           0     133.719 136.995 142.176  0.00  0.00     0.174 HD
ATOM      3  H           0     133.617 135.708 141.102  0.00  0.00     0.174 HD
ATOM      4  C           0     134.562 135.318 142.792  0.00  0.00     0.672 C 
ATOM      5  N           0     135.006 135.791 144.015  0.00  0.00    -0.218 N 
ATOM      6  C           0     135.143 134.841 145.115  0.00  0.00     0.151 C 
ATOM      7  C           0     135.954 133.617 144.733  0.00  0.00     0.180 C 
ATOM      8  N           0     137.390 133.971 144.718  0.00  0.00    -0.216 N 
ATOM      9  C           0     137.962 133.334 143.644  0.00  0.00     0.670 C 
ATOM     10  N           0     139.242 133.116 143.519  0.00  0.00    -0.235 N 
ATOM     11  H           0     139.854 133.409 144.212  0.00  0.00     0.174 HD
ATOM     12  H           0     139.581 132.659 142.734  0.00  0.00     0.174 HD
ATOM     13  C           0     135.689 133.111 143.323  0.00  0.00     0.217 C 
ATOM     14  N           0     137.022 132.957 142.718  0.00  0.00    -0.191 N 
ATOM     15  N           0     134.851 134.005 142.523  0.00  0.00    -0.183 N 
ATOM     16  C           0     134.345 133.176 141.414  0.00  0.00     0.150 C 
ATOM     17  C           0     134.062 131.800 142.063  0.00  0.00     0.093 C 
ATOM     18  C           0     134.956 131.759 143.327  0.00  0.00     0.209 C 
ATOM     19  H           0     135.220 136.730 144.137  0.00  0.00     0.178 HD
ATOM     20  H           0     137.845 134.547 145.352  0.00  0.00     0.178 HD
ATOM     21  H           0     137.204 132.639 141.820  0.00  0.00     0.180 HD
ENDROOT
BRANCH   6  22
ATOM     22  C           0     133.750 134.390 145.556  0.00  0.00     0.206 C 
BRANCH  22  23
ATOM     23  O           0     132.981 135.544 145.986  0.00  0.00    -0.320 OA
BRANCH  23  24
ATOM     24  C           0     132.435 135.568 147.211  0.00  0.00     0.254 C 
ATOM     25  C           0     131.941 136.869 147.791  0.00  0.00     0.126 C 
ATOM     26  O           0     132.341 134.548 147.851  0.00  0.00    -0.266 OA
ENDBRANCH  23  24
ENDBRANCH  22  23
ENDBRANCH   6  22
BRANCH  18  27
ATOM     27  O           0     135.889 130.681 143.243  0.00  0.00    -0.362 OA
ATOM     28  H           0     136.693 131.038 142.842  0.00  0.00     0.213 HD
ENDBRANCH  18  27
BRANCH  18  29
ATOM     29  O           0     134.152 131.633 144.502  0.00  0.00    -0.362 OA
ATOM     30  H           0     134.049 132.523 144.866  0.00  0.00     0.213 HD
ENDBRANCH  18  29
TORSDOF 5
ENDMDL
MODEL 4
REMARK VINA RESULT:      -6.7      2.542      4.888
REMARK  5 active torsions:
REMARK  status: ('A' for Active; 'I' for Inactive)
REMARK    1  A    between atoms: C_6  and  C_7 
REMARK    2  A    between atoms: C_7  and  O_8 
REMARK    3  A    between atoms: O_8  and  C_9 
REMARK    4  A    between atoms: C_23  and  O_24 
REMARK    5  A    between atoms: C_23  and  O_25 
ROOT
ATOM      1  N           0     137.611 134.749 142.699  0.00  0.00    -0.235 N 
ATOM      2  H           0     138.454 134.457 142.317  0.00  0.00     0.174 HD
ATOM      3  H           0     137.465 135.688 142.892  0.00  0.00     0.174 HD
ATOM      4  C           0     136.673 133.878 142.948  0.00  0.00     0.672 C 
ATOM      5  N           0     136.831 132.529 142.683  0.00  0.00    -0.218 N 
ATOM      6  C           0     136.091 131.573 143.502  0.00  0.00     0.151 C 
ATOM      7  C           0     134.611 131.893 143.582  0.00  0.00     0.180 C 
ATOM      8  N           0     133.956 131.481 142.322  0.00  0.00    -0.216 N 
ATOM      9  C           0     133.031 132.444 142.001  0.00  0.00     0.670 C 
ATOM     10  N           0     132.033 132.257 141.183  0.00  0.00    -0.235 N 
ATOM     11  H           0     131.910 131.394 140.757  0.00  0.00     0.174 HD
ATOM     12  H           0     131.414 132.980 141.000  0.00  0.00     0.174 HD
ATOM     13  C           0     134.301 133.379 143.684  0.00  0.00     0.217 C 
ATOM     14  N           0     133.285 133.627 142.648  0.00  0.00    -0.191 N 
ATOM     15  N           0     135.468 134.240 143.491  0.00  0.00    -0.183 N 
ATOM     16  C           0     135.086 135.546 144.058  0.00  0.00     0.150 C 
ATOM     17  C           0     134.262 135.191 145.319  0.00  0.00     0.093 C 
ATOM     18  C           0     133.740 133.754 145.067  0.00  0.00     0.209 C 
ATOM     19  H           0     137.418 132.227 141.972  0.00  0.00     0.178 HD
ATOM     20  H           0     134.146 130.677 141.813  0.00  0.00     0.178 HD
ATOM     21  H           0     132.865 134.481 142.458  0.00  0.00     0.180 HD
ENDROOT
BRANCH   6  22
ATOM     22  C           0     136.673 131.580 144.917  0.00  0.00     0.206 C 
BRANCH  22  23
ATOM     23  O           0     138.085 131.250 144.862  0.00  0.00    -0.320 OA
BRANCH  23  24
ATOM     24  C           0     139.005 132.178 145.167  0.00  0.00     0.254 C 
ATOM     25  C           0     139.380 132.423 146.606  0.00  0.00     0.126 C 
ATOM     26  O           0     139.531 132.819 144.288  0.00  0.00    -0.266 OA
ENDBRANCH  23  24
ENDBRANCH  22  23
ENDBRANCH   6  22
BRANCH  18  27
ATOM     27  O           0     132.312 133.737 145.052  0.00  0.00    -0.362 OA
ATOM     28  H           0     132.043 133.618 144.132  0.00  0.00     0.213 HD
ENDBRANCH  18  27
BRANCH  18  29
ATOM     29  O           0     134.240 132.861 146.064  0.00  0.00    -0.362 OA
ATOM     30  H           0     133.497 132.645 146.644  0.00  0.00     0.213 HD
ENDBRANCH  18  29
TORSDOF 5
ENDMDL
MODEL 5
REMARK VINA RESULT:      -6.7      2.508      3.503
REMARK  5 active torsions:
REMARK  status: ('A' for Active; 'I' for Inactive)
REMARK    1  A    between atoms: C_6  and  C_7 
REMARK    2  A    between atoms: C_7  and  O_8 
REMARK    3  A    between atoms: O_8  and  C_9 
REMARK    4  A    between atoms: C_23  and  O_24 
REMARK    5  A    between atoms: C_23  and  O_25 
ROOT
ATOM      1  N           0     134.516 134.810 146.497  0.00  0.00    -0.235 N 
ATOM      2  H           0     133.697 135.277 146.269  0.00  0.00     0.174 HD
ATOM      3  H           0     135.132 135.197 147.138  0.00  0.00     0.174 HD
ATOM      4  C           0     134.785 133.659 145.947  0.00  0.00     0.672 C 
ATOM      5  N           0     133.934 133.064 145.031  0.00  0.00    -0.218 N 
ATOM      6  C           0     134.512 132.177 144.026  0.00  0.00     0.151 C 
ATOM      7  C           0     135.413 131.117 144.629  0.00  0.00     0.180 C 
ATOM      8  N           0     134.579 130.058 145.236  0.00  0.00    -0.216 N 
ATOM      9  C           0     135.180 129.679 146.411  0.00  0.00     0.670 C 
ATOM     10  N           0     134.945 128.552 147.024  0.00  0.00    -0.235 N 
ATOM     11  H           0     134.309 127.920 146.651  0.00  0.00     0.174 HD
ATOM     12  H           0     135.405 128.345 147.851  0.00  0.00     0.174 HD
ATOM     13  C           0     136.269 131.612 145.784  0.00  0.00     0.217 C 
ATOM     14  N           0     136.059 130.632 146.861  0.00  0.00    -0.191 N 
ATOM     15  N           0     135.930 132.964 146.233  0.00  0.00    -0.183 N 
ATOM     16  C           0     137.102 133.426 146.998  0.00  0.00     0.150 C 
ATOM     17  C           0     138.315 132.872 146.214  0.00  0.00     0.093 C 
ATOM     18  C           0     137.761 131.668 145.411  0.00  0.00     0.209 C 
ATOM     19  H           0     132.978 133.231 145.058  0.00  0.00     0.178 HD
ATOM     20  H           0     133.755 129.696 144.870  0.00  0.00     0.178 HD
ATOM     21  H           0     136.474 130.653 147.738  0.00  0.00     0.180 HD
ENDROOT
BRANCH   6  22
ATOM     22  C           0     135.329 133.014 143.040  0.00  0.00     0.206 C 
BRANCH  22  23
ATOM     23  O           0     134.722 132.942 141.724  0.00  0.00    -0.320 OA
BRANCH  23  24
ATOM     24  C           0     133.595 133.624 141.465  0.00  0.00     0.254 C 
ATOM     25  C           0     132.327 132.884 141.126  0.00  0.00     0.126 C 
ATOM     26  O           0     133.598 134.832 141.504  0.00  0.00    -0.266 OA
ENDBRANCH  23  24
ENDBRANCH  22  23
ENDBRANCH   6  22
BRANCH  18  27
ATOM     27  O           0     138.422 130.463 145.799  0.00  0.00    -0.362 OA
ATOM     28  H           0     137.768 129.923 146.263  0.00  0.00     0.213 HD
ENDBRANCH  18  27
BRANCH  18  29
ATOM     29  O           0     137.913 131.892 144.008  0.00  0.00    -0.362 OA
ATOM     30  H           0     137.147 132.409 143.723  0.00  0.00     0.213 HD
ENDBRANCH  18  29
TORSDOF 5
ENDMDL
MODEL 6
REMARK VINA RESULT:      -6.6      2.337      4.319
REMARK  5 active torsions:
REMARK  status: ('A' for Active; 'I' for Inactive)
REMARK    1  A    between atoms: C_6  and  C_7 
REMARK    2  A    between atoms: C_7  and  O_8 
REMARK    3  A    between atoms: O_8  and  C_9 
REMARK    4  A    between atoms: C_23  and  O_24 
REMARK    5  A    between atoms: C_23  and  O_25 
ROOT
ATOM      1  N           0     137.665 135.091 143.507  0.00  0.00    -0.235 N 
ATOM      2  H           0     138.067 135.789 144.047  0.00  0.00     0.174 HD
ATOM      3  H           0     137.998 134.916 142.613  0.00  0.00     0.174 HD
ATOM      4  C           0     136.681 134.382 143.986  0.00  0.00     0.672 C 
ATOM      5  N           0     136.176 134.588 145.258  0.00  0.00    -0.218 N 
ATOM      6  C           0     134.775 134.261 145.507  0.00  0.00     0.151 C 
ATOM      7  C           0     134.412 132.861 145.050  0.00  0.00     0.180 C 
ATOM      8  N           0     134.925 131.881 146.030  0.00  0.00    -0.216 N 
ATOM      9  C           0     135.408 130.804 145.327  0.00  0.00     0.670 C 
ATOM     10  N           0     135.599 129.621 145.839  0.00  0.00    -0.235 N 
ATOM     11  H           0     135.398 129.459 146.774  0.00  0.00     0.174 HD
ATOM     12  H           0     135.942 128.903 145.286  0.00  0.00     0.174 HD
ATOM     13  C           0     135.067 132.445 143.742  0.00  0.00     0.217 C 
ATOM     14  N           0     135.663 131.128 144.017  0.00  0.00    -0.191 N 
ATOM     15  N           0     136.078 133.388 143.261  0.00  0.00    -0.183 N 
ATOM     16  C           0     136.255 133.074 141.832  0.00  0.00     0.150 C 
ATOM     17  C           0     134.829 132.746 141.331  0.00  0.00     0.093 C 
ATOM     18  C           0     134.043 132.327 142.599  0.00  0.00     0.209 C 
ATOM     19  H           0     136.739 134.941 145.966  0.00  0.00     0.178 HD
ATOM     20  H           0     134.922 131.980 146.996  0.00  0.00     0.178 HD
ATOM     21  H           0     136.150 130.581 143.382  0.00  0.00     0.180 HD
ENDROOT
BRANCH   6  22
ATOM     22  C           0     133.893 135.266 144.764  0.00  0.00     0.206 C 
BRANCH  22  23
ATOM     23  O           0     133.208 136.111 145.725  0.00  0.00    -0.320 OA
BRANCH  23  24
ATOM     24  C           0     132.811 135.605 146.902  0.00  0.00     0.254 C 
ATOM     25  C           0     131.794 134.493 146.941  0.00  0.00     0.126 C 
ATOM     26  O           0     133.267 136.041 147.933  0.00  0.00    -0.266 OA
ENDBRANCH  23  24
ENDBRANCH  22  23
ENDBRANCH   6  22
BRANCH  18  27
ATOM     27  O           0     133.579 130.982 142.476  0.00  0.00    -0.362 OA
ATOM     28  H           0     134.363 130.416 142.459  0.00  0.00     0.213 HD
ENDBRANCH  18  27
BRANCH  18  29
ATOM     29  O           0     132.946 133.216 142.822  0.00  0.00    -0.362 OA
ATOM     30  H           0     132.665 133.087 143.738  0.00  0.00     0.213 HD
ENDBRANCH  18  29
TORSDOF 5
ENDMDL
MODEL 7
REMARK VINA RESULT:      -6.6      2.661      5.339
REMARK  5 active torsions:
REMARK  status: ('A' for Active; 'I' for Inactive)
REMARK    1  A    between atoms: C_6  and  C_7 
REMARK    2  A    between atoms: C_7  and  O_8 
REMARK    3  A    between atoms: O_8  and  C_9 
REMARK    4  A    between atoms: C_23  and  O_24 
REMARK    5  A    between atoms: C_23  and  O_25 
ROOT
ATOM      1  N           0     135.162 129.850 145.081  0.00  0.00    -0.235 N 
ATOM      2  H           0     135.509 129.276 145.782  0.00  0.00     0.174 HD
ATOM      3  H           0     134.621 129.473 144.370  0.00  0.00     0.174 HD
ATOM      4  C           0     135.415 131.129 145.100  0.00  0.00     0.672 C 
ATOM      5  N           0     136.175 131.714 146.097  0.00  0.00    -0.218 N 
ATOM      6  C           0     136.929 132.922 145.773  0.00  0.00     0.151 C 
ATOM      7  C           0     136.073 133.986 145.112  0.00  0.00     0.180 C 
ATOM      8  N           0     135.244 134.651 146.140  0.00  0.00    -0.216 N 
ATOM      9  C           0     134.002 134.867 145.596  0.00  0.00     0.670 C 
ATOM     10  N           0     133.141 135.732 146.055  0.00  0.00    -0.235 N 
ATOM     11  H           0     133.363 136.272 146.830  0.00  0.00     0.174 HD
ATOM     12  H           0     132.280 135.836 145.623  0.00  0.00     0.174 HD
ATOM     13  C           0     135.056 133.438 144.123  0.00  0.00     0.217 C 
ATOM     14  N           0     133.779 134.061 144.507  0.00  0.00    -0.191 N 
ATOM     15  N           0     134.950 131.979 144.131  0.00  0.00    -0.183 N 
ATOM     16  C           0     134.298 131.628 142.856  0.00  0.00     0.150 C 
ATOM     17  C           0     134.905 132.614 141.830  0.00  0.00     0.093 C 
ATOM     18  C           0     135.405 133.815 142.673  0.00  0.00     0.209 C 
ATOM     19  H           0     136.206 131.332 146.989  0.00  0.00     0.178 HD
ATOM     20  H           0     135.527 134.891 147.037  0.00  0.00     0.178 HD
ATOM     21  H           0     132.926 133.927 144.066  0.00  0.00     0.180 HD
ENDROOT
BRANCH   6  22
ATOM     22  C           0     138.072 132.552 144.827  0.00  0.00     0.206 C 
BRANCH  22  23
ATOM     23  O           0     139.036 131.726 145.531  0.00  0.00    -0.320 OA
BRANCH  23  24
ATOM     24  C           0     140.186 132.261 145.969  0.00  0.00     0.254 C 
ATOM     25  C           0     140.307 132.724 147.398  0.00  0.00     0.126 C 
ATOM     26  O           0     141.125 132.373 145.216  0.00  0.00    -0.266 OA
ENDBRANCH  23  24
ENDBRANCH  22  23
ENDBRANCH   6  22
BRANCH  18  27
ATOM     27  O           0     134.728 135.011 142.286  0.00  0.00    -0.362 OA
ATOM     28  H           0     133.945 134.741 141.788  0.00  0.00     0.213 HD
ENDBRANCH  18  27
BRANCH  18  29
ATOM     29  O           0     136.818 133.972 142.527  0.00  0.00    -0.362 OA
ATOM     30  H           0     137.232 133.338 143.129  0.00  0.00     0.213 HD
ENDBRANCH  18  29
TORSDOF 5
ENDMDL
MODEL 8
REMARK VINA RESULT:      -6.4      8.842     11.404
REMARK  5 active torsions:
REMARK  status: ('A' for Active; 'I' for Inactive)
REMARK    1  A    between atoms: C_6  and  C_7 
REMARK    2  A    between atoms: C_7  and  O_8 
REMARK    3  A    between atoms: O_8  and  C_9 
REMARK    4  A    between atoms: C_23  and  O_24 
REMARK    5  A    between atoms: C_23  and  O_25 
ROOT
ATOM      1  N           0     128.826 134.223 132.063  0.00  0.00    -0.235 N 
ATOM      2  H           0     128.112 133.815 131.549  0.00  0.00     0.174 HD
ATOM      3  H           0     128.977 135.180 132.007  0.00  0.00     0.174 HD
ATOM      4  C           0     129.577 133.488 132.834  0.00  0.00     0.672 C 
ATOM      5  N           0     129.396 132.121 132.953  0.00  0.00    -0.218 N 
ATOM      6  C           0     130.555 131.296 133.278  0.00  0.00     0.151 C 
ATOM      7  C           0     131.312 131.803 134.491  0.00  0.00     0.180 C 
ATOM      8  N           0     130.572 131.434 135.716  0.00  0.00    -0.216 N 
ATOM      9  C           0     130.653 132.494 136.585  0.00  0.00     0.670 C 
ATOM     10  N           0     130.442 132.406 137.869  0.00  0.00    -0.235 N 
ATOM     11  H           0     130.212 131.551 138.266  0.00  0.00     0.174 HD
ATOM     12  H           0     130.516 133.195 138.427  0.00  0.00     0.174 HD
ATOM     13  C           0     131.414 133.319 134.570  0.00  0.00     0.217 C 
ATOM     14  N           0     130.983 133.657 135.936  0.00  0.00    -0.191 N 
ATOM     15  N           0     130.601 134.018 133.575  0.00  0.00    -0.183 N 
ATOM     16  C           0     131.158 135.381 133.504  0.00  0.00     0.150 C 
ATOM     17  C           0     132.687 135.177 133.630  0.00  0.00     0.093 C 
ATOM     18  C           0     132.854 133.810 134.340  0.00  0.00     0.209 C 
ATOM     19  H           0     128.520 131.722 132.823  0.00  0.00     0.178 HD
ATOM     20  H           0     130.112 130.594 135.877  0.00  0.00     0.178 HD
ATOM     21  H           0     130.942 134.550 136.314  0.00  0.00     0.180 HD
ENDROOT
BRANCH   6  22
ATOM     22  C           0     131.503 131.279 132.078  0.00  0.00     0.206 C 
BRANCH  22  23
ATOM     23  O           0     132.586 130.346 132.330  0.00  0.00    -0.320 OA
BRANCH  23  24
ATOM     24  C           0     132.349 129.025 132.332  0.00  0.00     0.254 C 
ATOM     25  C           0     131.693 128.375 131.141  0.00  0.00     0.126 C 
ATOM     26  O           0     132.659 128.357 133.290  0.00  0.00    -0.266 OA
ENDBRANCH  23  24
ENDBRANCH  22  23
ENDBRANCH   6  22
BRANCH  18  27
ATOM     27  O           0     133.535 133.974 135.584  0.00  0.00    -0.362 OA
ATOM     28  H           0     134.171 133.249 135.653  0.00  0.00     0.213 HD
ENDBRANCH  18  27
BRANCH  18  29
ATOM     29  O           0     133.562 132.896 133.499  0.00  0.00    -0.362 OA
ATOM     30  H           0     133.442 133.203 132.590  0.00  0.00     0.213 HD
ENDBRANCH  18  29
TORSDOF 5
ENDMDL
MODEL 9
REMARK VINA RESULT:      -6.3      8.412     11.093
REMARK  5 active torsions:
REMARK  status: ('A' for Active; 'I' for Inactive)
REMARK    1  A    between atoms: C_6  and  C_7 
REMARK    2  A    between atoms: C_7  and  O_8 
REMARK    3  A    between atoms: O_8  and  C_9 
REMARK    4  A    between atoms: C_23  and  O_24 
REMARK    5  A    between atoms: C_23  and  O_25 
ROOT
ATOM      1  N           0     132.442 137.983 131.986  0.00  0.00    -0.235 N 
ATOM      2  H           0     131.746 138.596 131.701  0.00  0.00     0.174 HD
ATOM      3  H           0     133.355 138.113 131.686  0.00  0.00     0.174 HD
ATOM      4  C           0     132.151 136.989 132.777  0.00  0.00     0.672 C 
ATOM      5  N           0     130.864 136.765 133.237  0.00  0.00    -0.218 N 
ATOM      6  C           0     130.473 135.396 133.557  0.00  0.00     0.151 C 
ATOM      7  C           0     131.457 134.707 134.483  0.00  0.00     0.180 C 
ATOM      8  N           0     131.254 135.200 135.862  0.00  0.00    -0.216 N 
ATOM      9  C           0     132.493 135.345 136.438  0.00  0.00     0.670 C 
ATOM     10  N           0     132.701 135.406 137.723  0.00  0.00    -0.235 N 
ATOM     11  H           0     131.953 135.349 138.339  0.00  0.00     0.174 HD
ATOM     12  H           0     133.602 135.507 138.065  0.00  0.00     0.174 HD
ATOM     13  C           0     132.915 135.030 134.192  0.00  0.00     0.217 C 
ATOM     14  N           0     133.486 135.416 135.492  0.00  0.00    -0.191 N 
ATOM     15  N           0     133.098 136.094 133.203  0.00  0.00    -0.183 N 
ATOM     16  C           0     134.487 135.953 132.731  0.00  0.00     0.150 C 
ATOM     17  C           0     134.713 134.424 132.657  0.00  0.00     0.093 C 
ATOM     18  C           0     133.671 133.815 133.628  0.00  0.00     0.209 C 
ATOM     19  H           0     130.240 137.500 133.344  0.00  0.00     0.178 HD
ATOM     20  H           0     130.401 135.388 136.284  0.00  0.00     0.178 HD
ATOM     21  H           0     134.407 135.673 135.654  0.00  0.00     0.180 HD
ENDROOT
BRANCH   6  22
ATOM     22  C           0     130.375 134.594 132.259  0.00  0.00     0.206 C 
BRANCH  22  23
ATOM     23  O           0     129.996 133.226 132.562  0.00  0.00    -0.320 OA
BRANCH  23  24
ATOM     24  C           0     128.907 132.688 131.991  0.00  0.00     0.254 C 
ATOM     25  C           0     127.666 133.521 131.801  0.00  0.00     0.126 C 
ATOM     26  O           0     128.921 131.535 131.630  0.00  0.00    -0.266 OA
ENDBRANCH  23  24
ENDBRANCH  22  23
ENDBRANCH   6  22
BRANCH  18  27
ATOM     27  O           0     134.325 133.099 134.676  0.00  0.00    -0.362 OA
ATOM     28  H           0     135.195 132.845 134.341  0.00  0.00     0.213 HD
ENDBRANCH  18  27
BRANCH  18  29
ATOM     29  O           0     132.773 132.956 132.921  0.00  0.00    -0.362 OA
ATOM     30  H           0     131.911 133.393 132.922  0.00  0.00     0.213 HD
ENDBRANCH  18  29
TORSDOF 5
ENDMDL
