# created with PyMOL 2.3.4
@<TRIPOS>MOLECULE
ligand_out_0001
32 34 1                 
SMALL
USER_CHARGES
@<TRIPOS>ATOM
1	   N	134.964	132.103	146.752	N.3	1	UNK0	-0.235	
2	   N	136.445	133.818	146.117	N.3	1	UNK0	-0.218	
3	   N	136.205	135.835	143.801	N.3	1	UNK0	-0.216	
4	   N	134.399	136.853	142.660	N.3	1	UNK0	-0.235	
5	   N	134.527	134.518	143.017	N.3	1	UNK0	-0.191	
6	   N	135.168	132.720	144.503	N.3	1	UNK0	-0.183	
7	   N	139.974	130.666	146.908	N.pl3	1	UNK0	-0.337	
8	   C	135.500	132.849	145.827	C.3	1	UNK0	0.672	
9	   C	137.424	134.158	145.090	C.3	1	UNK0	0.151	
10	   C	136.783	134.475	143.753	C.3	1	UNK0	0.180	
11	   C	135.006	135.799	143.131	C.3	1	UNK0	0.670	
12	   C	135.599	133.587	143.405	C.3	1	UNK0	0.217	
13	   C	134.360	131.662	143.871	C.3	1	UNK0	0.150	
14	   C	135.097	131.358	142.544	C.3	1	UNK0	0.093	
15	   C	135.915	132.638	142.237	C.3	1	UNK0	0.209	
16	   C	138.381	132.978	144.910	C.2	1	UNK0	0.208	
17	   C	140.058	131.826	146.227	C.2	1	UNK0	0.362	
18	   C	141.123	129.759	146.956	C.3	1	UNK0	0.154	
19	   C	138.733	130.312	147.601	C.3	1	UNK0	0.154	
20	   O	139.001	132.660	146.183	O.2	1	UNK0	-0.302	
21	   O	141.087	132.119	145.652	O.co2	1	UNK0	-0.238	
22	   O	135.498	133.211	140.996	O.2	1	UNK0	-0.362	
23	   O	137.313	132.339	142.204	O.2	1	UNK0	-0.362	
24	   H	135.225	132.218	147.679	 H	1	UNK0	0.174	
25	   H	134.301	131.436	146.513	 H	1	UNK0	0.174	
26	   H	134.794	137.731	142.775	 H	1	UNK0	0.174	
27	   H	133.553	136.757	142.195	 H	1	UNK0	0.174	
28	   H	136.455	134.260	146.981	 H	1	UNK0	0.178	
29	   H	136.599	136.610	144.228	 H	1	UNK0	0.178	
30	   H	133.635	134.269	142.728	 H	1	UNK0	0.180	
31	   H	135.040	132.514	140.507	 H	1	UNK0	0.213	
32	   H	137.475	131.684	142.895	 H	1	UNK0	0.213	
@<TRIPOS>BOND
1 1 8 1
2 1 24 1
3 1 25 1
4 2 9 1
5 2 28 1
6 3 11 1
7 3 29 1
8 4 26 1
9 4 27 1
10 5 30 1
11 6 13 1
12 7 18 1
13 7 19 1
14 2 8 1
15 6 8 1
16 9 10 1
17 9 16 1
18 3 10 1
19 10 12 1
20 4 11 1
21 5 11 1
22 5 12 1
23 6 12 1
24 12 15 1
25 13 14 1
26 14 15 1
27 15 22 2
28 15 23 2
29 16 20 2
30 7 17 1
31 17 21 2
32 17 20 2
33 22 31 1
34 23 32 1
@<TRIPOS>SUBSTRUCTURE
1	UNK0	1	GROUP	1 ****	UNK
