MODEL 1
REMARK VINA RESULT:      -7.7      0.000      0.000
REMARK  5 active torsions:
REMARK  status: ('A' for Active; 'I' for Inactive)
REMARK    1  A    between atoms: C_6  and  C_7 
REMARK    2  A    between atoms: C_7  and  O_8 
REMARK    3  A    between atoms: O_8  and  C_9 
REMARK       I    between atoms: C_9  and  N_10 
REMARK    4  A    between atoms: C_25  and  O_26 
REMARK    5  A    between atoms: C_25  and  O_27 
ROOT
ATOM      1  N           0     134.964 132.103 146.752  0.00  0.00    -0.235 N 
ATOM      2  H           0     135.225 132.218 147.679  0.00  0.00     0.174 HD
ATOM      3  H           0     134.301 131.436 146.513  0.00  0.00     0.174 HD
ATOM      4  C           0     135.500 132.849 145.827  0.00  0.00     0.672 C 
ATOM      5  N           0     136.445 133.818 146.117  0.00  0.00    -0.218 N 
ATOM      6  C           0     137.424 134.158 145.090  0.00  0.00     0.151 C 
ATOM      7  C           0     136.783 134.475 143.753  0.00  0.00     0.180 C 
ATOM      8  N           0     136.205 135.835 143.801  0.00  0.00    -0.216 N 
ATOM      9  C           0     135.006 135.799 143.131  0.00  0.00     0.670 C 
ATOM     10  N           0     134.399 136.853 142.660  0.00  0.00    -0.235 N 
ATOM     11  H           0     134.794 137.731 142.775  0.00  0.00     0.174 HD
ATOM     12  H           0     133.553 136.757 142.195  0.00  0.00     0.174 HD
ATOM     13  C           0     135.599 133.587 143.405  0.00  0.00     0.217 C 
ATOM     14  N           0     134.527 134.518 143.017  0.00  0.00    -0.191 N 
ATOM     15  N           0     135.168 132.720 144.503  0.00  0.00    -0.183 N 
ATOM     16  C           0     134.360 131.662 143.871  0.00  0.00     0.150 C 
ATOM     17  C           0     135.097 131.358 142.544  0.00  0.00     0.093 C 
ATOM     18  C           0     135.915 132.638 142.237  0.00  0.00     0.209 C 
ATOM     19  H           0     136.455 134.260 146.981  0.00  0.00     0.178 HD
ATOM     20  H           0     136.599 136.610 144.228  0.00  0.00     0.178 HD
ATOM     21  H           0     133.635 134.269 142.728  0.00  0.00     0.180 HD
ENDROOT
BRANCH   6  22
ATOM     22  C           0     138.381 132.978 144.910  0.00  0.00     0.208 C 
BRANCH  22  23
ATOM     23  O           0     139.001 132.660 146.183  0.00  0.00    -0.302 OA
BRANCH  23  24
ATOM     24  C           0     140.058 131.826 146.227  0.00  0.00     0.362 C 
ATOM     25  N           0     139.974 130.666 146.908  0.00  0.00    -0.337 N 
ATOM     26  C           0     141.123 129.759 146.956  0.00  0.00     0.154 C 
ATOM     27  C           0     138.733 130.312 147.601  0.00  0.00     0.154 C 
ATOM     28  O           0     141.087 132.119 145.652  0.00  0.00    -0.238 OA
ENDBRANCH  23  24
ENDBRANCH  22  23
ENDBRANCH   6  22
BRANCH  18  29
ATOM     29  O           0     135.498 133.211 140.996  0.00  0.00    -0.362 OA
ATOM     30  H           0     135.040 132.514 140.507  0.00  0.00     0.213 HD
ENDBRANCH  18  29
BRANCH  18  31
ATOM     31  O           0     137.313 132.339 142.204  0.00  0.00    -0.362 OA
ATOM     32  H           0     137.475 131.684 142.895  0.00  0.00     0.213 HD
ENDBRANCH  18  31
TORSDOF 5
ENDMDL
MODEL 2
REMARK VINA RESULT:      -7.0      2.546      5.607
REMARK  5 active torsions:
REMARK  status: ('A' for Active; 'I' for Inactive)
REMARK    1  A    between atoms: C_6  and  C_7 
REMARK    2  A    between atoms: C_7  and  O_8 
REMARK    3  A    between atoms: O_8  and  C_9 
REMARK       I    between atoms: C_9  and  N_10 
REMARK    4  A    between atoms: C_25  and  O_26 
REMARK    5  A    between atoms: C_25  and  O_27 
ROOT
ATOM      1  N           0     139.507 130.581 145.892  0.00  0.00    -0.235 N 
ATOM      2  H           0     140.264 130.718 145.301  0.00  0.00     0.174 HD
ATOM      3  H           0     139.511 129.843 146.522  0.00  0.00     0.174 HD
ATOM      4  C           0     138.487 131.392 145.844  0.00  0.00     0.672 C 
ATOM      5  N           0     138.437 132.462 144.967  0.00  0.00    -0.218 N 
ATOM      6  C           0     137.129 132.922 144.512  0.00  0.00     0.151 C 
ATOM      7  C           0     136.166 133.172 145.656  0.00  0.00     0.180 C 
ATOM      8  N           0     136.508 134.456 146.307  0.00  0.00    -0.216 N 
ATOM      9  C           0     136.357 134.285 147.662  0.00  0.00     0.670 C 
ATOM     10  N           0     136.216 135.265 148.511  0.00  0.00    -0.235 N 
ATOM     11  H           0     136.214 136.182 148.197  0.00  0.00     0.174 HD
ATOM     12  H           0     136.113 135.075 149.457  0.00  0.00     0.174 HD
ATOM     13  C           0     136.261 132.155 146.782  0.00  0.00     0.217 C 
ATOM     14  N           0     136.371 132.958 148.010  0.00  0.00    -0.191 N 
ATOM     15  N           0     137.392 131.236 146.654  0.00  0.00    -0.183 N 
ATOM     16  C           0     137.070 130.096 147.530  0.00  0.00     0.150 C 
ATOM     17  C           0     135.547 129.890 147.347  0.00  0.00     0.093 C 
ATOM     18  C           0     135.013 131.259 146.853  0.00  0.00     0.209 C 
ATOM     19  H           0     139.251 132.895 144.664  0.00  0.00     0.178 HD
ATOM     20  H           0     136.788 135.268 145.859  0.00  0.00     0.178 HD
ATOM     21  H           0     136.440 132.609 148.913  0.00  0.00     0.180 HD
ENDROOT
BRANCH   6  22
ATOM     22  C           0     136.528 131.864 143.585  0.00  0.00     0.208 C 
BRANCH  22  23
ATOM     23  O           0     135.775 132.516 142.530  0.00  0.00    -0.302 OA
BRANCH  23  24
ATOM     24  C           0     134.503 132.146 142.283  0.00  0.00     0.362 C 
ATOM     25  N           0     133.623 133.043 141.797  0.00  0.00    -0.337 N 
ATOM     26  C           0     132.240 132.641 141.528  0.00  0.00     0.154 C 
ATOM     27  C           0     134.048 134.421 141.537  0.00  0.00     0.154 C 
ATOM     28  O           0     134.150 131.004 142.498  0.00  0.00    -0.238 OA
ENDBRANCH  23  24
ENDBRANCH  22  23
ENDBRANCH   6  22
BRANCH  18  29
ATOM     29  O           0     134.065 131.789 147.782  0.00  0.00    -0.362 OA
ATOM     30  H           0     133.984 131.142 148.497  0.00  0.00     0.213 HD
ENDBRANCH  18  29
BRANCH  18  31
ATOM     31  O           0     134.422 131.125 145.559  0.00  0.00    -0.362 OA
ATOM     32  H           0     133.726 131.792 145.499  0.00  0.00     0.213 HD
ENDBRANCH  18  31
TORSDOF 5
ENDMDL
MODEL 3
REMARK VINA RESULT:      -6.8      2.089      5.970
REMARK  5 active torsions:
REMARK  status: ('A' for Active; 'I' for Inactive)
REMARK    1  A    between atoms: C_6  and  C_7 
REMARK    2  A    between atoms: C_7  and  O_8 
REMARK    3  A    between atoms: O_8  and  C_9 
REMARK       I    between atoms: C_9  and  N_10 
REMARK    4  A    between atoms: C_25  and  O_26 
REMARK    5  A    between atoms: C_25  and  O_27 
ROOT
ATOM      1  N           0     136.327 134.672 147.784  0.00  0.00    -0.235 N 
ATOM      2  H           0     135.864 135.443 147.420  0.00  0.00     0.174 HD
ATOM      3  H           0     136.875 134.765 148.580  0.00  0.00     0.174 HD
ATOM      4  C           0     136.209 133.509 147.207  0.00  0.00     0.672 C 
ATOM      5  N           0     135.435 133.324 146.074  0.00  0.00    -0.218 N 
ATOM      6  C           0     135.808 132.258 145.150  0.00  0.00     0.151 C 
ATOM      7  C           0     136.001 130.923 145.842  0.00  0.00     0.180 C 
ATOM      8  N           0     134.678 130.338 146.148  0.00  0.00    -0.216 N 
ATOM      9  C           0     134.760 129.756 147.390  0.00  0.00     0.670 C 
ATOM     10  N           0     133.930 128.852 147.830  0.00  0.00    -0.235 N 
ATOM     11  H           0     133.199 128.551 147.269  0.00  0.00     0.174 HD
ATOM     12  H           0     134.045 128.480 148.719  0.00  0.00     0.174 HD
ATOM     13  C           0     136.680 131.020 147.199  0.00  0.00     0.217 C 
ATOM     14  N           0     135.823 130.244 148.109  0.00  0.00    -0.191 N 
ATOM     15  N           0     136.847 132.392 147.679  0.00  0.00    -0.183 N 
ATOM     16  C           0     137.881 132.315 148.727  0.00  0.00     0.150 C 
ATOM     17  C           0     138.897 131.279 148.188  0.00  0.00     0.093 C 
ATOM     18  C           0     138.096 130.420 147.177  0.00  0.00     0.209 C 
ATOM     19  H           0     134.664 133.887 145.900  0.00  0.00     0.178 HD
ATOM     20  H           0     133.895 130.362 145.577  0.00  0.00     0.178 HD
ATOM     21  H           0     135.981 130.099 149.055  0.00  0.00     0.180 HD
ENDROOT
BRANCH   6  22
ATOM     22  C           0     137.113 132.644 144.451  0.00  0.00     0.208 C 
BRANCH  22  23
ATOM     23  O           0     136.836 133.616 143.410  0.00  0.00    -0.302 OA
BRANCH  23  24
ATOM     24  C           0     135.814 133.415 142.556  0.00  0.00     0.362 C 
ATOM     25  N           0     134.811 134.312 142.483  0.00  0.00    -0.337 N 
ATOM     26  C           0     133.698 134.094 141.555  0.00  0.00     0.154 C 
ATOM     27  C           0     134.831 135.506 143.332  0.00  0.00     0.154 C 
ATOM     28  O           0     135.796 132.426 141.852  0.00  0.00    -0.238 OA
ENDBRANCH  23  24
ENDBRANCH  22  23
ENDBRANCH   6  22
BRANCH  18  29
ATOM     29  O           0     138.070 129.053 147.594  0.00  0.00    -0.362 OA
ATOM     30  H           0     138.597 128.556 146.953  0.00  0.00     0.213 HD
ENDBRANCH  18  29
BRANCH  18  31
ATOM     31  O           0     138.664 130.532 145.870  0.00  0.00    -0.362 OA
ATOM     32  H           0     138.309 129.800 145.348  0.00  0.00     0.213 HD
ENDBRANCH  18  31
TORSDOF 5
ENDMDL
MODEL 4
REMARK VINA RESULT:      -6.8     10.221     13.014
REMARK  5 active torsions:
REMARK  status: ('A' for Active; 'I' for Inactive)
REMARK    1  A    between atoms: C_6  and  C_7 
REMARK    2  A    between atoms: C_7  and  O_8 
REMARK    3  A    between atoms: O_8  and  C_9 
REMARK       I    between atoms: C_9  and  N_10 
REMARK    4  A    between atoms: C_25  and  O_26 
REMARK    5  A    between atoms: C_25  and  O_27 
ROOT
ATOM      1  N           0     128.938 133.713 131.911  0.00  0.00    -0.235 N 
ATOM      2  H           0     128.274 133.221 131.404  0.00  0.00     0.174 HD
ATOM      3  H           0     129.039 134.669 131.780  0.00  0.00     0.174 HD
ATOM      4  C           0     129.691 133.091 132.775  0.00  0.00     0.672 C 
ATOM      5  N           0     129.581 131.730 133.003  0.00  0.00    -0.218 N 
ATOM      6  C           0     130.767 131.007 133.450  0.00  0.00     0.151 C 
ATOM      7  C           0     131.434 131.658 134.646  0.00  0.00     0.180 C 
ATOM      8  N           0     130.656 131.348 135.865  0.00  0.00    -0.216 N 
ATOM      9  C           0     130.635 132.480 136.642  0.00  0.00     0.670 C 
ATOM     10  N           0     130.368 132.488 137.918  0.00  0.00    -0.235 N 
ATOM     11  H           0     130.167 131.657 138.376  0.00  0.00     0.174 HD
ATOM     12  H           0     130.370 133.325 138.409  0.00  0.00     0.174 HD
ATOM     13  C           0     131.448 133.177 134.598  0.00  0.00     0.217 C 
ATOM     14  N           0     130.932 133.603 135.909  0.00  0.00    -0.191 N 
ATOM     15  N           0     130.647 133.742 133.512  0.00  0.00    -0.183 N 
ATOM     16  C           0     131.129 135.125 133.349  0.00  0.00     0.150 C 
ATOM     17  C           0     132.659 135.024 133.558  0.00  0.00     0.093 C 
ATOM     18  C           0     132.867 133.733 134.390  0.00  0.00     0.209 C 
ATOM     19  H           0     128.737 131.270 132.871  0.00  0.00     0.178 HD
ATOM     20  H           0     130.237 130.500 136.077  0.00  0.00     0.178 HD
ATOM     21  H           0     130.822 134.520 136.207  0.00  0.00     0.180 HD
ENDROOT
BRANCH   6  22
ATOM     22  C           0     131.772 130.946 132.299  0.00  0.00     0.208 C 
BRANCH  22  23
ATOM     23  O           0     131.701 129.642 131.663  0.00  0.00    -0.302 OA
BRANCH  23  24
ATOM     24  C           0     131.950 128.530 132.380  0.00  0.00     0.362 C 
ATOM     25  N           0     131.064 127.514 132.378  0.00  0.00    -0.337 N 
ATOM     26  C           0     131.334 126.303 133.157  0.00  0.00     0.154 C 
ATOM     27  C           0     129.829 127.621 131.597  0.00  0.00     0.154 C 
ATOM     28  O           0     132.974 128.441 133.028  0.00  0.00    -0.238 OA
ENDBRANCH  23  24
ENDBRANCH  22  23
ENDBRANCH   6  22
BRANCH  18  29
ATOM     29  O           0     133.476 134.041 135.646  0.00  0.00    -0.362 OA
ATOM     30  H           0     132.758 134.166 136.281  0.00  0.00     0.213 HD
ENDBRANCH  18  29
BRANCH  18  31
ATOM     31  O           0     133.666 132.796 133.663  0.00  0.00    -0.362 OA
ATOM     32  H           0     133.869 133.204 132.811  0.00  0.00     0.213 HD
ENDBRANCH  18  31
TORSDOF 5
ENDMDL
MODEL 5
REMARK VINA RESULT:      -6.7      2.860      4.435
REMARK  5 active torsions:
REMARK  status: ('A' for Active; 'I' for Inactive)
REMARK    1  A    between atoms: C_6  and  C_7 
REMARK    2  A    between atoms: C_7  and  O_8 
REMARK    3  A    between atoms: O_8  and  C_9 
REMARK       I    between atoms: C_9  and  N_10 
REMARK    4  A    between atoms: C_25  and  O_26 
REMARK    5  A    between atoms: C_25  and  O_27 
ROOT
ATOM      1  N           0     138.828 130.786 145.470  0.00  0.00    -0.235 N 
ATOM      2  H           0     138.984 130.055 146.089  0.00  0.00     0.174 HD
ATOM      3  H           0     139.568 131.163 144.968  0.00  0.00     0.174 HD
ATOM      4  C           0     137.623 131.258 145.308  0.00  0.00     0.672 C 
ATOM      5  N           0     136.535 130.749 145.996  0.00  0.00    -0.218 N 
ATOM      6  C           0     135.412 131.641 146.268  0.00  0.00     0.151 C 
ATOM      7  C           0     134.922 132.362 145.027  0.00  0.00     0.180 C 
ATOM      8  N           0     134.119 131.429 144.208  0.00  0.00    -0.216 N 
ATOM      9  C           0     134.428 131.663 142.890  0.00  0.00     0.670 C 
ATOM     10  N           0     133.678 131.302 141.887  0.00  0.00    -0.235 N 
ATOM     11  H           0     132.843 130.837 142.049  0.00  0.00     0.174 HD
ATOM     12  H           0     133.956 131.499 140.979  0.00  0.00     0.174 HD
ATOM     13  C           0     136.033 132.808 144.090  0.00  0.00     0.217 C 
ATOM     14  N           0     135.624 132.325 142.761  0.00  0.00    -0.191 N 
ATOM     15  N           0     137.354 132.292 144.451  0.00  0.00    -0.183 N 
ATOM     16  C           0     138.316 133.157 143.745  0.00  0.00     0.150 C 
ATOM     17  C           0     137.699 134.574 143.840  0.00  0.00     0.093 C 
ATOM     18  C           0     136.185 134.338 144.065  0.00  0.00     0.209 C 
ATOM     19  H           0     136.518 129.824 146.288  0.00  0.00     0.178 HD
ATOM     20  H           0     133.489 130.771 144.540  0.00  0.00     0.178 HD
ATOM     21  H           0     136.115 132.453 141.933  0.00  0.00     0.180 HD
ENDROOT
BRANCH   6  22
ATOM     22  C           0     135.846 132.681 147.302  0.00  0.00     0.208 C 
BRANCH  22  23
ATOM     23  O           0     135.854 132.077 148.622  0.00  0.00    -0.302 OA
BRANCH  23  24
ATOM     24  C           0     134.751 131.459 149.086  0.00  0.00     0.362 C 
ATOM     25  N           0     134.817 130.174 149.489  0.00  0.00    -0.337 N 
ATOM     26  C           0     133.618 129.501 149.994  0.00  0.00     0.154 C 
ATOM     27  C           0     136.088 129.449 149.421  0.00  0.00     0.154 C 
ATOM     28  O           0     133.696 132.059 149.142  0.00  0.00    -0.238 OA
ENDBRANCH  23  24
ENDBRANCH  22  23
ENDBRANCH   6  22
BRANCH  18  29
ATOM     29  O           0     135.427 134.902 142.992  0.00  0.00    -0.362 OA
ATOM     30  H           0     135.076 135.745 143.312  0.00  0.00     0.213 HD
ENDBRANCH  18  29
BRANCH  18  31
ATOM     31  O           0     135.774 134.898 145.314  0.00  0.00    -0.362 OA
ATOM     32  H           0     136.083 135.814 145.325  0.00  0.00     0.213 HD
ENDBRANCH  18  31
TORSDOF 5
ENDMDL
MODEL 6
REMARK VINA RESULT:      -6.7     10.764     12.341
REMARK  5 active torsions:
REMARK  status: ('A' for Active; 'I' for Inactive)
REMARK    1  A    between atoms: C_6  and  C_7 
REMARK    2  A    between atoms: C_7  and  O_8 
REMARK    3  A    between atoms: O_8  and  C_9 
REMARK       I    between atoms: C_9  and  N_10 
REMARK    4  A    between atoms: C_25  and  O_26 
REMARK    5  A    between atoms: C_25  and  O_27 
ROOT
ATOM      1  N           0     134.235 133.419 132.124  0.00  0.00    -0.235 N 
ATOM      2  H           0     134.216 132.765 131.407  0.00  0.00     0.174 HD
ATOM      3  H           0     135.081 133.799 132.410  0.00  0.00     0.174 HD
ATOM      4  C           0     133.126 133.791 132.697  0.00  0.00     0.672 C 
ATOM      5  N           0     131.895 133.282 132.320  0.00  0.00    -0.218 N 
ATOM      6  C           0     130.835 133.223 133.322  0.00  0.00     0.151 C 
ATOM      7  C           0     130.628 134.545 134.034  0.00  0.00     0.180 C 
ATOM      8  N           0     129.882 135.464 133.146  0.00  0.00    -0.216 N 
ATOM      9  C           0     130.424 136.717 133.297  0.00  0.00     0.670 C 
ATOM     10  N           0     129.816 137.822 132.966  0.00  0.00    -0.235 N 
ATOM     11  H           0     128.925 137.789 132.587  0.00  0.00     0.174 HD
ATOM     12  H           0     130.257 138.676 133.100  0.00  0.00     0.174 HD
ATOM     13  C           0     131.915 135.296 134.337  0.00  0.00     0.217 C 
ATOM     14  N           0     131.685 136.662 133.839  0.00  0.00    -0.191 N 
ATOM     15  N           0     133.103 134.707 133.717  0.00  0.00    -0.183 N 
ATOM     16  C           0     134.247 135.263 134.460  0.00  0.00     0.150 C 
ATOM     17  C           0     133.765 135.308 135.930  0.00  0.00     0.093 C 
ATOM     18  C           0     132.218 135.333 135.844  0.00  0.00     0.209 C 
ATOM     19  H           0     131.741 132.974 131.413  0.00  0.00     0.178 HD
ATOM     20  H           0     129.146 135.224 132.563  0.00  0.00     0.178 HD
ATOM     21  H           0     132.313 137.399 133.888  0.00  0.00     0.180 HD
ENDROOT
BRANCH   6  22
ATOM     22  C           0     131.194 132.157 134.359  0.00  0.00     0.208 C 
BRANCH  22  23
ATOM     23  O           0     131.560 130.926 133.681  0.00  0.00    -0.302 OA
BRANCH  23  24
ATOM     24  C           0     132.783 130.393 133.867  0.00  0.00     0.362 C 
ATOM     25  N           0     133.454 129.867 132.823  0.00  0.00    -0.337 N 
ATOM     26  C           0     134.784 129.287 133.025  0.00  0.00     0.154 C 
ATOM     27  C           0     132.853 129.873 131.487  0.00  0.00     0.154 C 
ATOM     28  O           0     133.281 130.388 134.975  0.00  0.00    -0.238 OA
ENDBRANCH  23  24
ENDBRANCH  22  23
ENDBRANCH   6  22
BRANCH  18  29
ATOM     29  O           0     131.705 136.531 136.431  0.00  0.00    -0.362 OA
ATOM     30  H           0     130.993 136.841 135.855  0.00  0.00     0.213 HD
ENDBRANCH  18  29
BRANCH  18  31
ATOM     31  O           0     131.665 134.184 136.490  0.00  0.00    -0.362 OA
ATOM     32  H           0     132.331 133.868 137.115  0.00  0.00     0.213 HD
ENDBRANCH  18  31
TORSDOF 5
ENDMDL
MODEL 7
REMARK VINA RESULT:      -6.6      3.280      5.264
REMARK  5 active torsions:
REMARK  status: ('A' for Active; 'I' for Inactive)
REMARK    1  A    between atoms: C_6  and  C_7 
REMARK    2  A    between atoms: C_7  and  O_8 
REMARK    3  A    between atoms: O_8  and  C_9 
REMARK       I    between atoms: C_9  and  N_10 
REMARK    4  A    between atoms: C_25  and  O_26 
REMARK    5  A    between atoms: C_25  and  O_27 
ROOT
ATOM      1  N           0     135.891 134.999 147.941  0.00  0.00    -0.235 N 
ATOM      2  H           0     135.756 135.223 148.875  0.00  0.00     0.174 HD
ATOM      3  H           0     135.649 135.635 147.249  0.00  0.00     0.174 HD
ATOM      4  C           0     136.405 133.846 147.615  0.00  0.00     0.672 C 
ATOM      5  N           0     136.773 132.909 148.565  0.00  0.00    -0.218 N 
ATOM      6  C           0     136.736 131.498 148.194  0.00  0.00     0.151 C 
ATOM      7  C           0     137.477 131.212 146.902  0.00  0.00     0.180 C 
ATOM      8  N           0     138.932 131.213 147.167  0.00  0.00    -0.216 N 
ATOM      9  C           0     139.546 131.829 146.103  0.00  0.00     0.670 C 
ATOM     10  N           0     140.810 131.697 145.811  0.00  0.00    -0.235 N 
ATOM     11  H           0     141.378 131.136 146.360  0.00  0.00     0.174 HD
ATOM     12  H           0     141.180 132.161 145.044  0.00  0.00     0.174 HD
ATOM     13  C           0     137.299 132.281 145.835  0.00  0.00     0.217 C 
ATOM     14  N           0     138.664 132.600 145.386  0.00  0.00    -0.191 N 
ATOM     15  N           0     136.610 133.481 146.310  0.00  0.00    -0.183 N 
ATOM     16  C           0     136.142 134.169 145.094  0.00  0.00     0.150 C 
ATOM     17  C           0     135.692 133.023 144.155  0.00  0.00     0.093 C 
ATOM     18  C           0     136.464 131.774 144.648  0.00  0.00     0.209 C 
ATOM     19  H           0     137.049 133.183 149.454  0.00  0.00     0.178 HD
ATOM     20  H           0     139.372 130.846 147.948  0.00  0.00     0.178 HD
ATOM     21  H           0     138.901 133.243 144.700  0.00  0.00     0.180 HD
ENDROOT
BRANCH   6  22
ATOM     22  C           0     135.277 131.068 148.029  0.00  0.00     0.208 C 
BRANCH  22  23
ATOM     23  O           0     135.117 129.705 148.503  0.00  0.00    -0.302 OA
BRANCH  23  24
ATOM     24  C           0     134.473 128.800 147.743  0.00  0.00     0.362 C 
ATOM     25  N           0     133.320 128.251 148.178  0.00  0.00    -0.337 N 
ATOM     26  C           0     132.619 127.266 147.352  0.00  0.00     0.154 C 
ATOM     27  C           0     132.770 128.640 149.479  0.00  0.00     0.154 C 
ATOM     28  O           0     134.929 128.477 146.665  0.00  0.00    -0.238 OA
ENDBRANCH  23  24
ENDBRANCH  22  23
ENDBRANCH   6  22
BRANCH  18  29
ATOM     29  O           0     137.313 131.271 143.613  0.00  0.00    -0.362 OA
ATOM     30  H           0     138.221 131.478 143.873  0.00  0.00     0.213 HD
ENDBRANCH  18  29
BRANCH  18  31
ATOM     31  O           0     135.550 130.762 145.079  0.00  0.00    -0.362 OA
ATOM     32  H           0     136.082 130.009 145.367  0.00  0.00     0.213 HD
ENDBRANCH  18  31
TORSDOF 5
ENDMDL
MODEL 8
REMARK VINA RESULT:      -6.5      9.313     12.435
REMARK  5 active torsions:
REMARK  status: ('A' for Active; 'I' for Inactive)
REMARK    1  A    between atoms: C_6  and  C_7 
REMARK    2  A    between atoms: C_7  and  O_8 
REMARK    3  A    between atoms: O_8  and  C_9 
REMARK       I    between atoms: C_9  and  N_10 
REMARK    4  A    between atoms: C_25  and  O_26 
REMARK    5  A    between atoms: C_25  and  O_27 
ROOT
ATOM      1  N           0     130.810 136.734 132.321  0.00  0.00    -0.235 N 
ATOM      2  H           0     129.880 136.865 132.079  0.00  0.00     0.174 HD
ATOM      3  H           0     131.502 137.262 131.892  0.00  0.00     0.174 HD
ATOM      4  C           0     131.130 135.852 133.226  0.00  0.00     0.672 C 
ATOM      5  N           0     130.180 135.079 133.870  0.00  0.00    -0.218 N 
ATOM      6  C           0     130.575 133.761 134.356  0.00  0.00     0.151 C 
ATOM      7  C           0     131.835 133.800 135.198  0.00  0.00     0.180 C 
ATOM      8  N           0     131.504 134.314 136.545  0.00  0.00    -0.216 N 
ATOM      9  C           0     132.527 135.142 136.936  0.00  0.00     0.670 C 
ATOM     10  N           0     132.763 135.480 138.173  0.00  0.00    -0.235 N 
ATOM     11  H           0     132.197 135.142 138.884  0.00  0.00     0.174 HD
ATOM     12  H           0     133.505 136.070 138.380  0.00  0.00     0.174 HD
ATOM     13  C           0     132.892 134.767 134.688  0.00  0.00     0.217 C 
ATOM     14  N           0     133.272 135.568 135.863  0.00  0.00    -0.191 N 
ATOM     15  N           0     132.430 135.626 133.597  0.00  0.00    -0.183 N 
ATOM     16  C           0     133.656 136.138 132.959  0.00  0.00     0.150 C 
ATOM     17  C           0     134.632 134.938 132.986  0.00  0.00     0.093 C 
ATOM     18  C           0     134.125 134.032 134.136  0.00  0.00     0.209 C 
ATOM     19  H           0     129.274 135.406 133.996  0.00  0.00     0.178 HD
ATOM     20  H           0     130.708 134.104 137.058  0.00  0.00     0.178 HD
ATOM     21  H           0     133.937 136.274 135.880  0.00  0.00     0.180 HD
ENDROOT
BRANCH   6  22
ATOM     22  C           0     130.813 132.843 133.156  0.00  0.00     0.208 C 
BRANCH  22  23
ATOM     23  O           0     130.243 131.535 133.425  0.00  0.00    -0.302 OA
BRANCH  23  24
ATOM     24  C           0     131.022 130.438 133.378  0.00  0.00     0.362 C 
ATOM     25  N           0     130.524 129.277 132.909  0.00  0.00    -0.337 N 
ATOM     26  C           0     131.371 128.083 132.857  0.00  0.00     0.154 C 
ATOM     27  C           0     129.133 129.208 132.452  0.00  0.00     0.154 C 
ATOM     28  O           0     132.175 130.495 133.756  0.00  0.00    -0.238 OA
ENDBRANCH  23  24
ENDBRANCH  22  23
ENDBRANCH   6  22
BRANCH  18  29
ATOM     29  O           0     135.127 133.900 135.147  0.00  0.00    -0.362 OA
ATOM     30  H           0     135.168 132.961 135.377  0.00  0.00     0.213 HD
ENDBRANCH  18  29
BRANCH  18  31
ATOM     31  O           0     133.753 132.748 133.631  0.00  0.00    -0.362 OA
ATOM     32  H           0     134.365 132.542 132.913  0.00  0.00     0.213 HD
ENDBRANCH  18  31
TORSDOF 5
ENDMDL
MODEL 9
REMARK VINA RESULT:      -6.4      2.787      5.946
REMARK  5 active torsions:
REMARK  status: ('A' for Active; 'I' for Inactive)
REMARK    1  A    between atoms: C_6  and  C_7 
REMARK    2  A    between atoms: C_7  and  O_8 
REMARK    3  A    between atoms: O_8  and  C_9 
REMARK       I    between atoms: C_9  and  N_10 
REMARK    4  A    between atoms: C_25  and  O_26 
REMARK    5  A    between atoms: C_25  and  O_27 
ROOT
ATOM      1  N           0     139.168 132.330 149.048  0.00  0.00    -0.235 N 
ATOM      2  H           0     139.623 133.145 148.784  0.00  0.00     0.174 HD
ATOM      3  H           0     139.535 131.777 149.756  0.00  0.00     0.174 HD
ATOM      4  C           0     138.060 131.980 148.456  0.00  0.00     0.672 C 
ATOM      5  N           0     137.494 132.738 147.445  0.00  0.00    -0.218 N 
ATOM      6  C           0     136.687 132.056 146.439  0.00  0.00     0.151 C 
ATOM      7  C           0     135.621 131.167 147.049  0.00  0.00     0.180 C 
ATOM      8  N           0     134.503 132.007 147.528  0.00  0.00    -0.216 N 
ATOM      9  C           0     134.073 131.483 148.723  0.00  0.00     0.670 C 
ATOM     10  N           0     132.905 131.724 149.251  0.00  0.00    -0.235 N 
ATOM     11  H           0     132.279 132.307 148.795  0.00  0.00     0.174 HD
ATOM     12  H           0     132.664 131.320 150.099  0.00  0.00     0.174 HD
ATOM     13  C           0     136.074 130.417 148.292  0.00  0.00     0.217 C 
ATOM     14  N           0     135.025 130.673 149.292  0.00  0.00    -0.191 N 
ATOM     15  N           0     137.385 130.835 148.789  0.00  0.00    -0.183 N 
ATOM     16  C           0     137.836 129.741 149.668  0.00  0.00     0.150 C 
ATOM     17  C           0     137.367 128.454 148.947  0.00  0.00     0.093 C 
ATOM     18  C           0     136.196 128.905 148.038  0.00  0.00     0.209 C 
ATOM     19  H           0     137.630 133.699 147.408  0.00  0.00     0.178 HD
ATOM     20  H           0     134.139 132.787 147.081  0.00  0.00     0.178 HD
ATOM     21  H           0     135.007 130.327 150.198  0.00  0.00     0.180 HD
ENDROOT
BRANCH   6  22
ATOM     22  C           0     137.605 131.197 145.568  0.00  0.00     0.208 C 
BRANCH  22  23
ATOM     23  O           0     137.744 131.810 144.259  0.00  0.00    -0.302 OA
BRANCH  23  24
ATOM     24  C           0     136.665 131.954 143.466  0.00  0.00     0.362 C 
ATOM     25  N           0     136.361 133.164 142.954  0.00  0.00    -0.337 N 
ATOM     26  C           0     135.188 133.321 142.091  0.00  0.00     0.154 C 
ATOM     27  C           0     137.203 134.322 143.262  0.00  0.00     0.154 C 
ATOM     28  O           0     135.966 130.994 143.210  0.00  0.00    -0.238 OA
ENDBRANCH  23  24
ENDBRANCH  22  23
ENDBRANCH   6  22
BRANCH  18  29
ATOM     29  O           0     134.990 128.234 148.408  0.00  0.00    -0.362 OA
ATOM     30  H           0     134.313 128.916 148.518  0.00  0.00     0.213 HD
ENDBRANCH  18  29
BRANCH  18  31
ATOM     31  O           0     136.507 128.655 146.666  0.00  0.00    -0.362 OA
ATOM     32  H           0     137.102 129.361 146.381  0.00  0.00     0.213 HD
ENDBRANCH  18  31
TORSDOF 5
ENDMDL
