# created with PyMOL 2.3.4
@<TRIPOS>MOLECULE
ligand_out_0001
39 41 1                 
SMALL
USER_CHARGES
@<TRIPOS>ATOM
1	   N	134.651	131.969	146.573	N.3	1	UNK0	-0.235	
2	   N	136.169	133.705	146.108	N.3	1	UNK0	-0.218	
3	   N	136.088	135.807	143.856	N.3	1	UNK0	-0.216	
4	   N	134.366	136.867	142.629	N.3	1	UNK0	-0.235	
5	   N	134.473	134.521	142.908	N.3	1	UNK0	-0.191	
6	   N	135.011	132.670	144.369	N.3	1	UNK0	-0.183	
7	   N	137.679	130.872	147.492	N.pl3	1	UNK0	-0.337	
8	   C	135.249	132.749	145.716	C.3	1	UNK0	0.672	
9	   C	137.218	134.084	145.165	C.3	1	UNK0	0.151	
10	   C	136.672	134.449	143.799	C.3	1	UNK0	0.180	
11	   C	134.940	135.797	143.102	C.3	1	UNK0	0.670	
12	   C	135.517	133.575	143.336	C.3	1	UNK0	0.217	
13	   C	134.253	131.636	143.642	C.3	1	UNK0	0.150	
14	   C	135.081	131.381	142.360	C.3	1	UNK0	0.093	
15	   C	135.917	132.670	142.158	C.3	1	UNK0	0.209	
16	   C	138.188	132.911	145.010	C.2	1	UNK0	0.208	
17	   C	138.714	131.299	146.742	C.2	1	UNK0	0.360	
18	   C	137.640	129.487	147.968	C.3	1	UNK0	0.125	
19	   C	136.307	128.849	147.572	C.3	1	UNK0	0.020	
20	   C	135.497	128.538	148.832	C.3	1	UNK0	0.002	
21	   C	134.006	128.705	148.534	C.3	1	UNK0	0.010	
22	   C	133.608	127.775	147.387	C.3	1	UNK0	0.113	
23	   C	132.162	127.376	147.541	C.2	1	UNK0	0.172	
24	   O	138.749	132.571	146.305	O.2	1	UNK0	-0.302	
25	   O	139.615	130.533	146.460	O.co2	1	UNK0	-0.239	
26	   O	131.755	126.352	147.019	O.co2	1	UNK0	-0.648	
27	   O	131.402	128.075	148.187	O.co2	1	UNK0	-0.648	
28	   O	135.586	133.289	140.913	O.2	1	UNK0	-0.362	
29	   O	137.313	132.372	142.213	O.2	1	UNK0	-0.362	
30	   H	134.846	132.050	147.519	 H	1	UNK0	0.174	
31	   H	134.009	131.312	146.264	 H	1	UNK0	0.174	
32	   H	134.749	137.741	142.804	 H	1	UNK0	0.174	
33	   H	133.555	136.790	142.103	 H	1	UNK0	0.174	
34	   H	136.118	134.115	146.986	 H	1	UNK0	0.178	
35	   H	136.450	136.566	144.338	 H	1	UNK0	0.178	
36	   H	133.605	134.283	142.548	 H	1	UNK0	0.180	
37	   H	136.960	131.483	147.718	 H	1	UNK0	0.164	
38	   H	135.543	132.583	140.254	 H	1	UNK0	0.213	
39	   H	137.737	133.104	142.680	 H	1	UNK0	0.213	
@<TRIPOS>BOND
1 1 8 1
2 1 30 1
3 1 31 1
4 2 9 1
5 2 34 1
6 3 11 1
7 3 35 1
8 4 32 1
9 4 33 1
10 5 36 1
11 6 13 1
12 7 18 1
13 7 37 1
14 2 8 1
15 6 8 1
16 9 10 1
17 9 16 1
18 3 10 1
19 10 12 1
20 4 11 1
21 5 11 1
22 5 12 1
23 6 12 1
24 12 15 1
25 13 14 1
26 14 15 1
27 15 28 2
28 15 29 2
29 16 24 2
30 7 17 1
31 17 25 2
32 18 19 1
33 19 20 1
34 20 21 1
35 21 22 1
36 22 23 1
37 23 26 2
38 23 27 2
39 17 24 2
40 28 38 1
41 29 39 1
@<TRIPOS>SUBSTRUCTURE
1	UNK0	1	GROUP	1 ****	UNK
