MODEL 1
REMARK VINA RESULT:      -7.8      0.000      0.000
REMARK  11 active torsions:
REMARK  status: ('A' for Active; 'I' for Inactive)
REMARK    1  A    between atoms: C_6  and  C_7 
REMARK    2  A    between atoms: C_7  and  O_8 
REMARK    3  A    between atoms: O_8  and  C_9 
REMARK       I    between atoms: C_9  and  N_10 
REMARK    4  A    between atoms: N_10  and  C_11 
REMARK    5  A    between atoms: C_11  and  C_12 
REMARK    6  A    between atoms: C_12  and  C_13 
REMARK    7  A    between atoms: C_13  and  C_14 
REMARK    8  A    between atoms: C_14  and  C_15 
REMARK    9  A    between atoms: C_15  and  C_16 
REMARK   10  A    between atoms: C_31  and  O_32 
REMARK   11  A    between atoms: C_31  and  O_33 
ROOT
ATOM      1  N           0     134.651 131.969 146.573  0.00  0.00    -0.235 N 
ATOM      2  H           0     134.846 132.050 147.519  0.00  0.00     0.174 HD
ATOM      3  H           0     134.009 131.312 146.264  0.00  0.00     0.174 HD
ATOM      4  C           0     135.249 132.749 145.716  0.00  0.00     0.672 C 
ATOM      5  N           0     136.169 133.705 146.108  0.00  0.00    -0.218 N 
ATOM      6  C           0     137.218 134.084 145.165  0.00  0.00     0.151 C 
ATOM      7  C           0     136.672 134.449 143.799  0.00  0.00     0.180 C 
ATOM      8  N           0     136.088 135.807 143.856  0.00  0.00    -0.216 N 
ATOM      9  C           0     134.940 135.797 143.102  0.00  0.00     0.670 C 
ATOM     10  N           0     134.366 136.867 142.629  0.00  0.00    -0.235 N 
ATOM     11  H           0     134.749 137.741 142.804  0.00  0.00     0.174 HD
ATOM     12  H           0     133.555 136.790 142.103  0.00  0.00     0.174 HD
ATOM     13  C           0     135.517 133.575 143.336  0.00  0.00     0.217 C 
ATOM     14  N           0     134.473 134.521 142.908  0.00  0.00    -0.191 N 
ATOM     15  N           0     135.011 132.670 144.369  0.00  0.00    -0.183 N 
ATOM     16  C           0     134.253 131.636 143.642  0.00  0.00     0.150 C 
ATOM     17  C           0     135.081 131.381 142.360  0.00  0.00     0.093 C 
ATOM     18  C           0     135.917 132.670 142.158  0.00  0.00     0.209 C 
ATOM     19  H           0     136.118 134.115 146.986  0.00  0.00     0.178 HD
ATOM     20  H           0     136.450 136.566 144.338  0.00  0.00     0.178 HD
ATOM     21  H           0     133.605 134.283 142.548  0.00  0.00     0.180 HD
ENDROOT
BRANCH   6  22
ATOM     22  C           0     138.188 132.911 145.010  0.00  0.00     0.208 C 
BRANCH  22  23
ATOM     23  O           0     138.749 132.571 146.305  0.00  0.00    -0.302 OA
BRANCH  23  24
ATOM     24  C           0     138.714 131.299 146.742  0.00  0.00     0.360 C 
ATOM     25  N           0     137.679 130.872 147.492  0.00  0.00    -0.337 N 
ATOM     26  H           0     136.960 131.483 147.718  0.00  0.00     0.164 HD
ATOM     27  O           0     139.615 130.533 146.460  0.00  0.00    -0.239 OA
BRANCH  25  28
ATOM     28  C           0     137.640 129.487 147.968  0.00  0.00     0.125 C 
BRANCH  28  29
ATOM     29  C           0     136.307 128.849 147.572  0.00  0.00     0.020 C 
BRANCH  29  30
ATOM     30  C           0     135.497 128.538 148.832  0.00  0.00     0.002 C 
BRANCH  30  31
ATOM     31  C           0     134.006 128.705 148.534  0.00  0.00     0.010 C 
BRANCH  31  32
ATOM     32  C           0     133.608 127.775 147.387  0.00  0.00     0.113 C 
BRANCH  32  33
ATOM     33  C           0     132.162 127.376 147.541  0.00  0.00     0.172 C 
ATOM     34  O           0     131.755 126.352 147.019  0.00  0.00    -0.648 OA
ATOM     35  O           0     131.402 128.075 148.187  0.00  0.00    -0.648 OA
ENDBRANCH  32  33
ENDBRANCH  31  32
ENDBRANCH  30  31
ENDBRANCH  29  30
ENDBRANCH  28  29
ENDBRANCH  25  28
ENDBRANCH  23  24
ENDBRANCH  22  23
ENDBRANCH   6  22
BRANCH  18  36
ATOM     36  O           0     135.586 133.289 140.913  0.00  0.00    -0.362 OA
ATOM     37  H           0     135.543 132.583 140.254  0.00  0.00     0.213 HD
ENDBRANCH  18  36
BRANCH  18  38
ATOM     38  O           0     137.313 132.372 142.213  0.00  0.00    -0.362 OA
ATOM     39  H           0     137.737 133.104 142.680  0.00  0.00     0.213 HD
ENDBRANCH  18  38
TORSDOF 11
ENDMDL
MODEL 2
REMARK VINA RESULT:      -7.7      4.224      8.356
REMARK  11 active torsions:
REMARK  status: ('A' for Active; 'I' for Inactive)
REMARK    1  A    between atoms: C_6  and  C_7 
REMARK    2  A    between atoms: C_7  and  O_8 
REMARK    3  A    between atoms: O_8  and  C_9 
REMARK       I    between atoms: C_9  and  N_10 
REMARK    4  A    between atoms: N_10  and  C_11 
REMARK    5  A    between atoms: C_11  and  C_12 
REMARK    6  A    between atoms: C_12  and  C_13 
REMARK    7  A    between atoms: C_13  and  C_14 
REMARK    8  A    between atoms: C_14  and  C_15 
REMARK    9  A    between atoms: C_15  and  C_16 
REMARK   10  A    between atoms: C_31  and  O_32 
REMARK   11  A    between atoms: C_31  and  O_33 
ROOT
ATOM      1  N           0     134.907 136.799 143.119  0.00  0.00    -0.235 N 
ATOM      2  H           0     134.112 137.298 142.877  0.00  0.00     0.174 HD
ATOM      3  H           0     135.740 137.265 143.294  0.00  0.00     0.174 HD
ATOM      4  C           0     134.856 135.500 143.214  0.00  0.00     0.672 C 
ATOM      5  N           0     133.693 134.789 142.980  0.00  0.00    -0.218 N 
ATOM      6  C           0     133.806 133.417 142.492  0.00  0.00     0.151 C 
ATOM      7  C           0     134.742 132.573 143.334  0.00  0.00     0.180 C 
ATOM      8  N           0     134.054 132.184 144.584  0.00  0.00    -0.216 N 
ATOM      9  C           0     134.971 132.259 145.604  0.00  0.00     0.670 C 
ATOM     10  N           0     134.840 131.660 146.753  0.00  0.00    -0.235 N 
ATOM     11  H           0     134.055 131.118 146.931  0.00  0.00     0.174 HD
ATOM     12  H           0     135.527 131.755 147.431  0.00  0.00     0.174 HD
ATOM     13  C           0     135.982 133.311 143.815  0.00  0.00     0.217 C 
ATOM     14  N           0     136.044 133.045 145.262  0.00  0.00    -0.191 N 
ATOM     15  N           0     135.953 134.750 143.548  0.00  0.00    -0.183 N 
ATOM     16  C           0     137.355 135.193 143.655  0.00  0.00     0.150 C 
ATOM     17  C           0     138.172 134.041 143.024  0.00  0.00     0.093 C 
ATOM     18  C           0     137.260 132.793 143.133  0.00  0.00     0.209 C 
ATOM     19  H           0     132.823 135.191 143.136  0.00  0.00     0.178 HD
ATOM     20  H           0     133.124 131.922 144.669  0.00  0.00     0.178 HD
ATOM     21  H           0     136.728 133.368 145.869  0.00  0.00     0.180 HD
ENDROOT
BRANCH   6  22
ATOM     22  C           0     134.328 133.446 141.054  0.00  0.00     0.208 C 
BRANCH  22  23
ATOM     23  O           0     133.471 134.294 140.245  0.00  0.00    -0.302 OA
BRANCH  23  24
ATOM     24  C           0     133.807 134.571 138.971  0.00  0.00     0.360 C 
ATOM     25  N           0     132.910 135.146 138.146  0.00  0.00    -0.337 N 
ATOM     26  H           0     132.021 135.361 138.472  0.00  0.00     0.164 HD
ATOM     27  O           0     134.921 134.302 138.564  0.00  0.00    -0.239 OA
BRANCH  25  28
ATOM     28  C           0     133.276 135.447 136.761  0.00  0.00     0.125 C 
BRANCH  28  29
ATOM     29  C           0     132.015 135.476 135.895  0.00  0.00     0.020 C 
BRANCH  29  30
ATOM     30  C           0     131.960 134.214 135.032  0.00  0.00     0.002 C 
BRANCH  30  31
ATOM     31  C           0     130.640 133.482 135.283  0.00  0.00     0.010 C 
BRANCH  31  32
ATOM     32  C           0     130.929 132.074 135.809  0.00  0.00     0.113 C 
BRANCH  32  33
ATOM     33  C           0     130.496 131.976 137.249  0.00  0.00     0.172 C 
ATOM     34  O           0     129.475 131.374 137.537  0.00  0.00    -0.648 OA
ATOM     35  O           0     131.165 132.496 138.124  0.00  0.00    -0.648 OA
ENDBRANCH  32  33
ENDBRANCH  31  32
ENDBRANCH  30  31
ENDBRANCH  29  30
ENDBRANCH  28  29
ENDBRANCH  25  28
ENDBRANCH  23  24
ENDBRANCH  22  23
ENDBRANCH   6  22
BRANCH  18  36
ATOM     36  O           0     137.885 131.787 143.933  0.00  0.00    -0.362 OA
ATOM     37  H           0     138.197 131.102 143.326  0.00  0.00     0.213 HD
ENDBRANCH  18  36
BRANCH  18  38
ATOM     38  O           0     136.957 132.282 141.834  0.00  0.00    -0.362 OA
ATOM     39  H           0     136.680 131.363 141.952  0.00  0.00     0.213 HD
ENDBRANCH  18  38
TORSDOF 11
ENDMDL
MODEL 3
REMARK VINA RESULT:      -7.4      4.207      8.701
REMARK  11 active torsions:
REMARK  status: ('A' for Active; 'I' for Inactive)
REMARK    1  A    between atoms: C_6  and  C_7 
REMARK    2  A    between atoms: C_7  and  O_8 
REMARK    3  A    between atoms: O_8  and  C_9 
REMARK       I    between atoms: C_9  and  N_10 
REMARK    4  A    between atoms: N_10  and  C_11 
REMARK    5  A    between atoms: C_11  and  C_12 
REMARK    6  A    between atoms: C_12  and  C_13 
REMARK    7  A    between atoms: C_13  and  C_14 
REMARK    8  A    between atoms: C_14  and  C_15 
REMARK    9  A    between atoms: C_15  and  C_16 
REMARK   10  A    between atoms: C_31  and  O_32 
REMARK   11  A    between atoms: C_31  and  O_33 
ROOT
ATOM      1  N           0     135.136 136.608 143.172  0.00  0.00    -0.235 N 
ATOM      2  H           0     134.354 137.117 142.906  0.00  0.00     0.174 HD
ATOM      3  H           0     135.981 137.059 143.322  0.00  0.00     0.174 HD
ATOM      4  C           0     135.048 135.317 143.333  0.00  0.00     0.672 C 
ATOM      5  N           0     133.864 134.629 143.137  0.00  0.00    -0.218 N 
ATOM      6  C           0     133.937 133.231 142.720  0.00  0.00     0.151 C 
ATOM      7  C           0     134.852 132.405 143.603  0.00  0.00     0.180 C 
ATOM      8  N           0     134.157 132.100 144.872  0.00  0.00    -0.216 N 
ATOM      9  C           0     135.078 132.201 145.885  0.00  0.00     0.670 C 
ATOM     10  N           0     134.933 131.665 147.064  0.00  0.00    -0.235 N 
ATOM     11  H           0     134.134 131.155 147.270  0.00  0.00     0.174 HD
ATOM     12  H           0     135.624 131.775 147.735  0.00  0.00     0.174 HD
ATOM     13  C           0     136.114 133.131 144.044  0.00  0.00     0.217 C 
ATOM     14  N           0     136.172 132.937 145.502  0.00  0.00    -0.191 N 
ATOM     15  N           0     136.125 134.554 143.704  0.00  0.00    -0.183 N 
ATOM     16  C           0     137.539 134.963 143.786  0.00  0.00     0.150 C 
ATOM     17  C           0     138.321 133.757 143.214  0.00  0.00     0.093 C 
ATOM     18  C           0     137.374 132.543 143.388  0.00  0.00     0.209 C 
ATOM     19  H           0     133.007 135.063 143.274  0.00  0.00     0.178 HD
ATOM     20  H           0     133.220 131.869 144.971  0.00  0.00     0.178 HD
ATOM     21  H           0     136.866 133.272 146.091  0.00  0.00     0.180 HD
ENDROOT
BRANCH   6  22
ATOM     22  C           0     134.456 133.172 141.282  0.00  0.00     0.208 C 
BRANCH  22  23
ATOM     23  O           0     133.398 133.566 140.369  0.00  0.00    -0.302 OA
BRANCH  23  24
ATOM     24  C           0     133.550 134.654 139.591  0.00  0.00     0.360 C 
ATOM     25  N           0     134.169 134.549 138.398  0.00  0.00    -0.337 N 
ATOM     26  H           0     134.504 133.689 138.101  0.00  0.00     0.164 HD
ATOM     27  O           0     133.130 135.732 139.965  0.00  0.00    -0.239 OA
BRANCH  25  28
ATOM     28  C           0     134.335 135.733 137.553  0.00  0.00     0.125 C 
BRANCH  28  29
ATOM     29  C           0     135.218 135.384 136.353  0.00  0.00     0.020 C 
BRANCH  29  30
ATOM     30  C           0     134.338 135.160 135.121  0.00  0.00     0.002 C 
BRANCH  30  31
ATOM     31  C           0     132.919 135.652 135.412  0.00  0.00     0.010 C 
BRANCH  31  32
ATOM     32  C           0     131.918 134.833 134.595  0.00  0.00     0.113 C 
BRANCH  32  33
ATOM     33  C           0     131.489 133.625 135.389  0.00  0.00     0.172 C 
ATOM     34  O           0     130.860 132.732 134.847  0.00  0.00    -0.648 OA
ATOM     35  O           0     131.772 133.541 136.571  0.00  0.00    -0.648 OA
ENDBRANCH  32  33
ENDBRANCH  31  32
ENDBRANCH  30  31
ENDBRANCH  29  30
ENDBRANCH  28  29
ENDBRANCH  25  28
ENDBRANCH  23  24
ENDBRANCH  22  23
ENDBRANCH   6  22
BRANCH  18  36
ATOM     36  O           0     137.972 131.562 144.237  0.00  0.00    -0.362 OA
ATOM     37  H           0     137.336 130.838 144.318  0.00  0.00     0.213 HD
ENDBRANCH  18  36
BRANCH  18  38
ATOM     38  O           0     137.053 131.975 142.116  0.00  0.00    -0.362 OA
ATOM     39  H           0     137.853 131.537 141.796  0.00  0.00     0.213 HD
ENDBRANCH  18  38
TORSDOF 11
ENDMDL
MODEL 4
REMARK VINA RESULT:      -7.4     10.305     13.214
REMARK  11 active torsions:
REMARK  status: ('A' for Active; 'I' for Inactive)
REMARK    1  A    between atoms: C_6  and  C_7 
REMARK    2  A    between atoms: C_7  and  O_8 
REMARK    3  A    between atoms: O_8  and  C_9 
REMARK       I    between atoms: C_9  and  N_10 
REMARK    4  A    between atoms: N_10  and  C_11 
REMARK    5  A    between atoms: C_11  and  C_12 
REMARK    6  A    between atoms: C_12  and  C_13 
REMARK    7  A    between atoms: C_13  and  C_14 
REMARK    8  A    between atoms: C_14  and  C_15 
REMARK    9  A    between atoms: C_15  and  C_16 
REMARK   10  A    between atoms: C_31  and  O_32 
REMARK   11  A    between atoms: C_31  and  O_33 
ROOT
ATOM      1  N           0     131.157 136.773 132.102  0.00  0.00    -0.235 N 
ATOM      2  H           0     130.264 137.069 131.865  0.00  0.00     0.174 HD
ATOM      3  H           0     131.929 137.146 131.648  0.00  0.00     0.174 HD
ATOM      4  C           0     131.320 135.875 133.033  0.00  0.00     0.672 C 
ATOM      5  N           0     130.252 135.316 133.712  0.00  0.00    -0.218 N 
ATOM      6  C           0     130.399 133.962 134.239  0.00  0.00     0.151 C 
ATOM      7  C           0     131.658 133.791 135.066  0.00  0.00     0.180 C 
ATOM      8  N           0     131.451 134.400 136.398  0.00  0.00    -0.216 N 
ATOM      9  C           0     132.619 135.031 136.751  0.00  0.00     0.670 C 
ATOM     10  N           0     132.934 135.358 137.972  0.00  0.00    -0.235 N 
ATOM     11  H           0     132.326 135.157 138.701  0.00  0.00     0.174 HD
ATOM     12  H           0     133.776 135.804 138.153  0.00  0.00     0.174 HD
ATOM     13  C           0     132.870 134.524 134.514  0.00  0.00     0.217 C 
ATOM     14  N           0     133.412 135.275 135.658  0.00  0.00    -0.191 N 
ATOM     15  N           0     132.559 135.421 133.399  0.00  0.00    -0.183 N 
ATOM     16  C           0     133.850 135.671 132.731  0.00  0.00     0.150 C 
ATOM     17  C           0     134.584 134.311 132.790  0.00  0.00     0.093 C 
ATOM     18  C           0     133.933 133.553 133.974  0.00  0.00     0.209 C 
ATOM     19  H           0     129.426 135.811 133.836  0.00  0.00     0.178 HD
ATOM     20  H           0     130.639 134.360 136.926  0.00  0.00     0.178 HD
ATOM     21  H           0     134.198 135.844 135.642  0.00  0.00     0.180 HD
ENDROOT
BRANCH   6  22
ATOM     22  C           0     130.441 132.979 133.068  0.00  0.00     0.208 C 
BRANCH  22  23
ATOM     23  O           0     130.577 131.625 133.576  0.00  0.00    -0.302 OA
BRANCH  23  24
ATOM     24  C           0     129.830 130.633 133.058  0.00  0.00     0.360 C 
ATOM     25  N           0     130.149 129.348 133.307  0.00  0.00    -0.337 N 
ATOM     26  H           0     130.918 129.138 133.860  0.00  0.00     0.164 HD
ATOM     27  O           0     128.866 130.896 132.365  0.00  0.00    -0.239 OA
BRANCH  25  28
ATOM     28  C           0     129.335 128.268 132.742  0.00  0.00     0.125 C 
BRANCH  28  29
ATOM     29  C           0     130.225 127.341 131.912  0.00  0.00     0.020 C 
BRANCH  29  30
ATOM     30  C           0     131.391 126.849 132.773  0.00  0.00     0.002 C 
BRANCH  30  31
ATOM     31  C           0     132.676 126.858 131.943  0.00  0.00     0.010 C 
BRANCH  31  32
ATOM     32  C           0     133.780 127.579 132.719  0.00  0.00     0.113 C 
BRANCH  32  33
ATOM     33  C           0     133.449 129.046 132.819  0.00  0.00     0.172 C 
ATOM     34  O           0     133.217 129.545 133.908  0.00  0.00    -0.648 OA
ATOM     35  O           0     133.413 129.733 131.813  0.00  0.00    -0.648 OA
ENDBRANCH  32  33
ENDBRANCH  31  32
ENDBRANCH  30  31
ENDBRANCH  29  30
ENDBRANCH  28  29
ENDBRANCH  25  28
ENDBRANCH  23  24
ENDBRANCH  22  23
ENDBRANCH   6  22
BRANCH  18  36
ATOM     36  O           0     134.909 133.266 134.979  0.00  0.00    -0.362 OA
ATOM     37  H           0     134.461 133.343 135.832  0.00  0.00     0.213 HD
ENDBRANCH  18  36
BRANCH  18  38
ATOM     38  O           0     133.318 132.347 133.517  0.00  0.00    -0.362 OA
ATOM     39  H           0     132.386 132.551 133.359  0.00  0.00     0.213 HD
ENDBRANCH  18  38
TORSDOF 11
ENDMDL
MODEL 5
REMARK VINA RESULT:      -7.4      6.963      9.931
REMARK  11 active torsions:
REMARK  status: ('A' for Active; 'I' for Inactive)
REMARK    1  A    between atoms: C_6  and  C_7 
REMARK    2  A    between atoms: C_7  and  O_8 
REMARK    3  A    between atoms: O_8  and  C_9 
REMARK       I    between atoms: C_9  and  N_10 
REMARK    4  A    between atoms: N_10  and  C_11 
REMARK    5  A    between atoms: C_11  and  C_12 
REMARK    6  A    between atoms: C_12  and  C_13 
REMARK    7  A    between atoms: C_13  and  C_14 
REMARK    8  A    between atoms: C_14  and  C_15 
REMARK    9  A    between atoms: C_15  and  C_16 
REMARK   10  A    between atoms: C_31  and  O_32 
REMARK   11  A    between atoms: C_31  and  O_33 
ROOT
ATOM      1  N           0     131.455 132.182 135.110  0.00  0.00    -0.235 N 
ATOM      2  H           0     130.894 131.836 135.822  0.00  0.00     0.174 HD
ATOM      3  H           0     131.786 131.587 134.419  0.00  0.00     0.174 HD
ATOM      4  C           0     131.762 133.449 135.080  0.00  0.00     0.672 C 
ATOM      5  N           0     131.313 134.338 136.039  0.00  0.00    -0.218 N 
ATOM      6  C           0     132.129 135.513 136.330  0.00  0.00     0.151 C 
ATOM      7  C           0     132.514 136.282 135.081  0.00  0.00     0.180 C 
ATOM      8  N           0     131.353 137.073 134.621  0.00  0.00    -0.216 N 
ATOM      9  C           0     131.325 137.009 133.249  0.00  0.00     0.670 C 
ATOM     10  N           0     130.685 137.853 132.490  0.00  0.00    -0.235 N 
ATOM     11  H           0     130.187 138.583 132.888  0.00  0.00     0.174 HD
ATOM     12  H           0     130.706 137.750 131.526  0.00  0.00     0.174 HD
ATOM     13  C           0     132.852 135.401 133.888  0.00  0.00     0.217 C 
ATOM     14  N           0     132.055 135.947 132.777  0.00  0.00    -0.191 N 
ATOM     15  N           0     132.555 133.983 134.099  0.00  0.00    -0.183 N 
ATOM     16  C           0     133.337 133.267 133.075  0.00  0.00     0.150 C 
ATOM     17  C           0     134.673 134.043 132.999  0.00  0.00     0.093 C 
ATOM     18  C           0     134.348 135.459 133.537  0.00  0.00     0.209 C 
ATOM     19  H           0     130.476 134.186 136.507  0.00  0.00     0.178 HD
ATOM     20  H           0     130.724 137.551 135.185  0.00  0.00     0.178 HD
ATOM     21  H           0     132.049 135.613 131.867  0.00  0.00     0.180 HD
ENDROOT
BRANCH   6  22
ATOM     22  C           0     133.406 135.063 137.044  0.00  0.00     0.208 C 
BRANCH  22  23
ATOM     23  O           0     133.328 135.421 138.449  0.00  0.00    -0.302 OA
BRANCH  23  24
ATOM     24  C           0     133.003 134.489 139.365  0.00  0.00     0.360 C 
ATOM     25  N           0     133.632 134.468 140.556  0.00  0.00    -0.337 N 
ATOM     26  H           0     134.319 135.124 140.754  0.00  0.00     0.164 HD
ATOM     27  O           0     132.143 133.667 139.117  0.00  0.00    -0.239 OA
BRANCH  25  28
ATOM     28  C           0     133.279 133.454 141.552  0.00  0.00     0.125 C 
BRANCH  28  29
ATOM     29  C           0     134.194 133.596 142.770  0.00  0.00     0.020 C 
BRANCH  29  30
ATOM     30  C           0     134.621 135.058 142.920  0.00  0.00     0.002 C 
BRANCH  30  31
ATOM     31  C           0     135.977 135.123 143.625  0.00  0.00     0.010 C 
BRANCH  31  32
ATOM     32  C           0     136.636 133.743 143.592  0.00  0.00     0.113 C 
BRANCH  32  33
ATOM     33  C           0     138.072 133.881 143.156  0.00  0.00     0.172 C 
ATOM     34  O           0     138.521 134.980 142.876  0.00  0.00    -0.648 OA
ATOM     35  O           0     138.785 132.895 143.082  0.00  0.00    -0.648 OA
ENDBRANCH  32  33
ENDBRANCH  31  32
ENDBRANCH  30  31
ENDBRANCH  29  30
ENDBRANCH  28  29
ENDBRANCH  25  28
ENDBRANCH  23  24
ENDBRANCH  22  23
ENDBRANCH   6  22
BRANCH  18  36
ATOM     36  O           0     134.590 136.443 132.529  0.00  0.00    -0.362 OA
ATOM     37  H           0     134.810 135.964 131.718  0.00  0.00     0.213 HD
ENDBRANCH  18  36
BRANCH  18  38
ATOM     38  O           0     135.122 135.738 134.705  0.00  0.00    -0.362 OA
ATOM     39  H           0     134.540 136.200 135.323  0.00  0.00     0.213 HD
ENDBRANCH  18  38
TORSDOF 11
ENDMDL
MODEL 6
REMARK VINA RESULT:      -7.3      2.956      6.818
REMARK  11 active torsions:
REMARK  status: ('A' for Active; 'I' for Inactive)
REMARK    1  A    between atoms: C_6  and  C_7 
REMARK    2  A    between atoms: C_7  and  O_8 
REMARK    3  A    between atoms: O_8  and  C_9 
REMARK       I    between atoms: C_9  and  N_10 
REMARK    4  A    between atoms: N_10  and  C_11 
REMARK    5  A    between atoms: C_11  and  C_12 
REMARK    6  A    between atoms: C_12  and  C_13 
REMARK    7  A    between atoms: C_13  and  C_14 
REMARK    8  A    between atoms: C_14  and  C_15 
REMARK    9  A    between atoms: C_15  and  C_16 
REMARK   10  A    between atoms: C_31  and  O_32 
REMARK   11  A    between atoms: C_31  and  O_33 
ROOT
ATOM      1  N           0     135.196 131.137 146.212  0.00  0.00    -0.235 N 
ATOM      2  H           0     134.972 130.961 145.285  0.00  0.00     0.174 HD
ATOM      3  H           0     134.512 131.441 146.828  0.00  0.00     0.174 HD
ATOM      4  C           0     136.419 130.963 146.630  0.00  0.00     0.672 C 
ATOM      5  N           0     137.429 130.527 145.791  0.00  0.00    -0.218 N 
ATOM      6  C           0     138.800 130.932 146.091  0.00  0.00     0.151 C 
ATOM      7  C           0     139.191 130.650 147.528  0.00  0.00     0.180 C 
ATOM      8  N           0     139.473 129.206 147.681  0.00  0.00    -0.216 N 
ATOM      9  C           0     138.962 128.810 148.893  0.00  0.00     0.670 C 
ATOM     10  N           0     139.325 127.728 149.522  0.00  0.00    -0.235 N 
ATOM     11  H           0     139.996 127.144 149.136  0.00  0.00     0.174 HD
ATOM     12  H           0     138.923 127.506 150.376  0.00  0.00     0.174 HD
ATOM     13  C           0     138.086 130.915 148.538  0.00  0.00     0.217 C 
ATOM     14  N           0     138.023 129.695 149.360  0.00  0.00    -0.191 N 
ATOM     15  N           0     136.787 131.203 147.928  0.00  0.00    -0.183 N 
ATOM     16  C           0     135.996 131.856 148.987  0.00  0.00     0.150 C 
ATOM     17  C           0     137.014 132.758 149.726  0.00  0.00     0.093 C 
ATOM     18  C           0     138.399 132.130 149.428  0.00  0.00     0.209 C 
ATOM     19  H           0     137.233 129.967 145.024  0.00  0.00     0.178 HD
ATOM     20  H           0     139.934 128.641 147.042  0.00  0.00     0.178 HD
ATOM     21  H           0     137.421 129.545 150.105  0.00  0.00     0.180 HD
ENDROOT
BRANCH   6  22
ATOM     22  C           0     138.940 132.433 145.828  0.00  0.00     0.208 C 
BRANCH  22  23
ATOM     23  O           0     139.106 132.661 144.403  0.00  0.00    -0.302 OA
BRANCH  23  24
ATOM     24  C           0     138.419 133.646 143.795  0.00  0.00     0.360 C 
ATOM     25  N           0     137.258 134.083 144.322  0.00  0.00    -0.337 N 
ATOM     26  H           0     136.918 133.687 145.140  0.00  0.00     0.164 HD
ATOM     27  O           0     138.845 134.141 142.770  0.00  0.00    -0.239 OA
BRANCH  25  28
ATOM     28  C           0     136.510 135.153 143.660  0.00  0.00     0.125 C 
BRANCH  28  29
ATOM     29  C           0     135.018 134.995 143.962  0.00  0.00     0.020 C 
BRANCH  29  30
ATOM     30  C           0     134.242 134.878 142.648  0.00  0.00     0.002 C 
BRANCH  30  31
ATOM     31  C           0     133.755 133.439 142.471  0.00  0.00     0.010 C 
BRANCH  31  32
ATOM     32  C           0     134.878 132.590 141.872  0.00  0.00     0.113 C 
BRANCH  32  33
ATOM     33  C           0     135.236 131.482 142.829  0.00  0.00     0.172 C 
ATOM     34  O           0     136.405 131.266 143.100  0.00  0.00    -0.648 OA
ATOM     35  O           0     134.358 130.802 143.331  0.00  0.00    -0.648 OA
ENDBRANCH  32  33
ENDBRANCH  31  32
ENDBRANCH  30  31
ENDBRANCH  29  30
ENDBRANCH  28  29
ENDBRANCH  25  28
ENDBRANCH  23  24
ENDBRANCH  22  23
ENDBRANCH   6  22
BRANCH  18  36
ATOM     36  O           0     139.030 131.715 150.641  0.00  0.00    -0.362 OA
ATOM     37  H           0     139.110 130.752 150.599  0.00  0.00     0.213 HD
ENDBRANCH  18  36
BRANCH  18  38
ATOM     38  O           0     139.227 133.059 148.726  0.00  0.00    -0.362 OA
ATOM     39  H           0     139.977 132.559 148.379  0.00  0.00     0.213 HD
ENDBRANCH  18  38
TORSDOF 11
ENDMDL
MODEL 7
REMARK VINA RESULT:      -7.3      3.356      7.745
REMARK  11 active torsions:
REMARK  status: ('A' for Active; 'I' for Inactive)
REMARK    1  A    between atoms: C_6  and  C_7 
REMARK    2  A    between atoms: C_7  and  O_8 
REMARK    3  A    between atoms: O_8  and  C_9 
REMARK       I    between atoms: C_9  and  N_10 
REMARK    4  A    between atoms: N_10  and  C_11 
REMARK    5  A    between atoms: C_11  and  C_12 
REMARK    6  A    between atoms: C_12  and  C_13 
REMARK    7  A    between atoms: C_13  and  C_14 
REMARK    8  A    between atoms: C_14  and  C_15 
REMARK    9  A    between atoms: C_15  and  C_16 
REMARK   10  A    between atoms: C_31  and  O_32 
REMARK   11  A    between atoms: C_31  and  O_33 
ROOT
ATOM      1  N           0     139.656 130.512 146.102  0.00  0.00    -0.235 N 
ATOM      2  H           0     140.428 130.646 145.530  0.00  0.00     0.174 HD
ATOM      3  H           0     139.656 129.800 146.760  0.00  0.00     0.174 HD
ATOM      4  C           0     138.619 131.294 145.989  0.00  0.00     0.672 C 
ATOM      5  N           0     138.571 132.327 145.070  0.00  0.00    -0.218 N 
ATOM      6  C           0     137.267 132.736 144.555  0.00  0.00     0.151 C 
ATOM      7  C           0     136.263 133.006 145.658  0.00  0.00     0.180 C 
ATOM      8  N           0     136.552 134.322 146.267  0.00  0.00    -0.216 N 
ATOM      9  C           0     136.361 134.203 147.622  0.00  0.00     0.670 C 
ATOM     10  N           0     136.170 135.210 148.426  0.00  0.00    -0.235 N 
ATOM     11  H           0     136.157 136.115 148.076  0.00  0.00     0.174 HD
ATOM     12  H           0     136.042 135.056 149.375  0.00  0.00     0.174 HD
ATOM     13  C           0     136.345 132.037 146.827  0.00  0.00     0.217 C 
ATOM     14  N           0     136.397 132.891 148.024  0.00  0.00    -0.191 N 
ATOM     15  N           0     137.504 131.143 146.771  0.00  0.00    -0.183 N 
ATOM     16  C           0     137.179 130.030 147.682  0.00  0.00     0.150 C 
ATOM     17  C           0     135.669 129.779 147.460  0.00  0.00     0.093 C 
ATOM     18  C           0     135.118 131.112 146.895  0.00  0.00     0.209 C 
ATOM     19  H           0     139.383 132.768 144.774  0.00  0.00     0.178 HD
ATOM     20  H           0     136.827 135.124 145.796  0.00  0.00     0.178 HD
ATOM     21  H           0     136.444 132.579 148.941  0.00  0.00     0.180 HD
ENDROOT
BRANCH   6  22
ATOM     22  C           0     136.723 131.626 143.654  0.00  0.00     0.208 C 
BRANCH  22  23
ATOM     23  O           0     136.128 132.214 142.467  0.00  0.00    -0.302 OA
BRANCH  23  24
ATOM     24  C           0     134.798 132.139 142.273  0.00  0.00     0.360 C 
ATOM     25  N           0     134.143 133.161 141.687  0.00  0.00    -0.337 N 
ATOM     26  H           0     134.631 133.951 141.405  0.00  0.00     0.164 HD
ATOM     27  O           0     134.187 131.149 142.626  0.00  0.00    -0.239 OA
BRANCH  25  28
ATOM     28  C           0     132.696 133.079 141.476  0.00  0.00     0.125 C 
BRANCH  28  29
ATOM     29  C           0     132.354 133.604 140.080  0.00  0.00     0.020 C 
BRANCH  29  30
ATOM     30  C           0     133.411 134.621 139.645  0.00  0.00     0.002 C 
BRANCH  30  31
ATOM     31  C           0     133.124 135.072 138.212  0.00  0.00     0.010 C 
BRANCH  31  32
ATOM     32  C           0     134.444 135.335 137.485  0.00  0.00     0.113 C 
BRANCH  32  33
ATOM     33  C           0     134.265 135.087 136.009  0.00  0.00     0.172 C 
ATOM     34  O           0     134.637 134.033 135.520  0.00  0.00    -0.648 OA
ATOM     35  O           0     133.749 135.937 135.306  0.00  0.00    -0.648 OA
ENDBRANCH  32  33
ENDBRANCH  31  32
ENDBRANCH  30  31
ENDBRANCH  29  30
ENDBRANCH  28  29
ENDBRANCH  25  28
ENDBRANCH  23  24
ENDBRANCH  22  23
ENDBRANCH   6  22
BRANCH  18  36
ATOM     36  O           0     134.128 131.655 147.772  0.00  0.00    -0.362 OA
ATOM     37  H           0     133.522 130.933 147.989  0.00  0.00     0.213 HD
ENDBRANCH  18  36
BRANCH  18  38
ATOM     38  O           0     134.573 130.913 145.589  0.00  0.00    -0.362 OA
ATOM     39  H           0     133.831 131.526 145.499  0.00  0.00     0.213 HD
ENDBRANCH  18  38
TORSDOF 11
ENDMDL
MODEL 8
REMARK VINA RESULT:      -7.2     11.112     13.254
REMARK  11 active torsions:
REMARK  status: ('A' for Active; 'I' for Inactive)
REMARK    1  A    between atoms: C_6  and  C_7 
REMARK    2  A    between atoms: C_7  and  O_8 
REMARK    3  A    between atoms: O_8  and  C_9 
REMARK       I    between atoms: C_9  and  N_10 
REMARK    4  A    between atoms: N_10  and  C_11 
REMARK    5  A    between atoms: C_11  and  C_12 
REMARK    6  A    between atoms: C_12  and  C_13 
REMARK    7  A    between atoms: C_13  and  C_14 
REMARK    8  A    between atoms: C_14  and  C_15 
REMARK    9  A    between atoms: C_15  and  C_16 
REMARK   10  A    between atoms: C_31  and  O_32 
REMARK   11  A    between atoms: C_31  and  O_33 
ROOT
ATOM      1  N           0     134.821 133.407 132.556  0.00  0.00    -0.235 N 
ATOM      2  H           0     134.909 132.746 131.852  0.00  0.00     0.174 HD
ATOM      3  H           0     135.611 133.832 132.924  0.00  0.00     0.174 HD
ATOM      4  C           0     133.640 133.728 133.004  0.00  0.00     0.672 C 
ATOM      5  N           0     132.483 133.154 132.508  0.00  0.00    -0.218 N 
ATOM      6  C           0     131.326 133.051 133.395  0.00  0.00     0.151 C 
ATOM      7  C           0     130.982 134.369 134.060  0.00  0.00     0.180 C 
ATOM      8  N           0     130.290 135.240 133.086  0.00  0.00    -0.216 N 
ATOM      9  C           0     130.750 136.520 133.273  0.00  0.00     0.670 C 
ATOM     10  N           0     130.127 137.589 132.864  0.00  0.00    -0.235 N 
ATOM     11  H           0     129.283 137.509 132.393  0.00  0.00     0.174 HD
ATOM     12  H           0     130.508 138.465 133.029  0.00  0.00     0.174 HD
ATOM     13  C           0     132.191 135.187 134.485  0.00  0.00     0.217 C 
ATOM     14  N           0     131.946 136.534 133.945  0.00  0.00    -0.191 N 
ATOM     15  N           0     133.465 134.652 134.001  0.00  0.00    -0.183 N 
ATOM     16  C           0     134.496 135.273 134.852  0.00  0.00     0.150 C 
ATOM     17  C           0     133.860 135.309 136.262  0.00  0.00     0.093 C 
ATOM     18  C           0     132.331 135.254 136.015  0.00  0.00     0.209 C 
ATOM     19  H           0     132.440 132.828 131.595  0.00  0.00     0.178 HD
ATOM     20  H           0     129.630 134.958 132.432  0.00  0.00     0.178 HD
ATOM     21  H           0     132.530 137.302 134.049  0.00  0.00     0.180 HD
ENDROOT
BRANCH   6  22
ATOM     22  C           0     131.627 132.015 134.479  0.00  0.00     0.208 C 
BRANCH  22  23
ATOM     23  O           0     131.988 130.754 133.858  0.00  0.00    -0.302 OA
BRANCH  23  24
ATOM     24  C           0     131.164 130.187 132.957  0.00  0.00     0.360 C 
ATOM     25  N           0     130.061 129.532 133.370  0.00  0.00    -0.337 N 
ATOM     26  H           0     129.861 129.469 134.317  0.00  0.00     0.164 HD
ATOM     27  O           0     131.414 130.266 131.770  0.00  0.00    -0.239 OA
BRANCH  25  28
ATOM     28  C           0     129.165 128.915 132.389  0.00  0.00     0.125 C 
BRANCH  28  29
ATOM     29  C           0     129.251 127.392 132.507  0.00  0.00     0.020 C 
BRANCH  29  30
ATOM     30  C           0     130.274 126.860 131.501  0.00  0.00     0.002 C 
BRANCH  30  31
ATOM     31  C           0     131.512 126.363 132.249  0.00  0.00     0.010 C 
BRANCH  31  32
ATOM     32  C           0     132.751 127.091 131.724  0.00  0.00     0.113 C 
BRANCH  32  33
ATOM     33  C           0     133.805 127.132 132.802  0.00  0.00     0.172 C 
ATOM     34  O           0     134.374 126.106 133.136  0.00  0.00    -0.648 OA
ATOM     35  O           0     134.088 128.189 133.338  0.00  0.00    -0.648 OA
ENDBRANCH  32  33
ENDBRANCH  31  32
ENDBRANCH  30  31
ENDBRANCH  29  30
ENDBRANCH  28  29
ENDBRANCH  25  28
ENDBRANCH  23  24
ENDBRANCH  22  23
ENDBRANCH   6  22
BRANCH  18  36
ATOM     36  O           0     131.701 136.430 136.527  0.00  0.00    -0.362 OA
ATOM     37  H           0     130.884 136.144 136.958  0.00  0.00     0.213 HD
ENDBRANCH  18  36
BRANCH  18  38
ATOM     38  O           0     131.771 134.085 136.617  0.00  0.00    -0.362 OA
ATOM     39  H           0     131.287 134.379 137.401  0.00  0.00     0.213 HD
ENDBRANCH  18  38
TORSDOF 11
ENDMDL
MODEL 9
REMARK VINA RESULT:      -7.1      2.193      3.170
REMARK  11 active torsions:
REMARK  status: ('A' for Active; 'I' for Inactive)
REMARK    1  A    between atoms: C_6  and  C_7 
REMARK    2  A    between atoms: C_7  and  O_8 
REMARK    3  A    between atoms: O_8  and  C_9 
REMARK       I    between atoms: C_9  and  N_10 
REMARK    4  A    between atoms: N_10  and  C_11 
REMARK    5  A    between atoms: C_11  and  C_12 
REMARK    6  A    between atoms: C_12  and  C_13 
REMARK    7  A    between atoms: C_13  and  C_14 
REMARK    8  A    between atoms: C_14  and  C_15 
REMARK    9  A    between atoms: C_15  and  C_16 
REMARK   10  A    between atoms: C_31  and  O_32 
REMARK   11  A    between atoms: C_31  and  O_33 
ROOT
ATOM      1  N           0     138.800 130.843 145.540  0.00  0.00    -0.235 N 
ATOM      2  H           0     138.919 130.173 146.232  0.00  0.00     0.174 HD
ATOM      3  H           0     139.552 131.116 144.993  0.00  0.00     0.174 HD
ATOM      4  C           0     137.625 131.373 145.344  0.00  0.00     0.672 C 
ATOM      5  N           0     136.519 131.013 146.094  0.00  0.00    -0.218 N 
ATOM      6  C           0     135.460 132.000 146.282  0.00  0.00     0.151 C 
ATOM      7  C           0     134.995 132.615 144.977  0.00  0.00     0.180 C 
ATOM      8  N           0     134.119 131.655 144.272  0.00  0.00    -0.216 N 
ATOM      9  C           0     134.417 131.727 142.933  0.00  0.00     0.670 C 
ATOM     10  N           0     133.628 131.312 141.984  0.00  0.00    -0.235 N 
ATOM     11  H           0     132.768 130.922 142.203  0.00  0.00     0.174 HD
ATOM     12  H           0     133.900 131.393 141.056  0.00  0.00     0.174 HD
ATOM     13  C           0     136.114 132.886 143.984  0.00  0.00     0.217 C 
ATOM     14  N           0     135.651 132.292 142.719  0.00  0.00    -0.191 N 
ATOM     15  N           0     137.406 132.325 144.383  0.00  0.00    -0.183 N 
ATOM     16  C           0     138.409 133.047 143.578  0.00  0.00     0.150 C 
ATOM     17  C           0     137.885 134.501 143.527  0.00  0.00     0.093 C 
ATOM     18  C           0     136.363 134.392 143.794  0.00  0.00     0.209 C 
ATOM     19  H           0     136.449 130.127 146.484  0.00  0.00     0.178 HD
ATOM     20  H           0     133.455 131.079 144.680  0.00  0.00     0.178 HD
ATOM     21  H           0     136.133 132.300 141.878  0.00  0.00     0.180 HD
ENDROOT
BRANCH   6  22
ATOM     22  C           0     135.980 133.113 147.194  0.00  0.00     0.208 C 
BRANCH  22  23
ATOM     23  O           0     135.519 132.882 148.552  0.00  0.00    -0.302 OA
BRANCH  23  24
ATOM     24  C           0     135.961 131.812 149.240  0.00  0.00     0.360 C 
ATOM     25  N           0     135.098 131.075 149.967  0.00  0.00    -0.337 N 
ATOM     26  H           0     134.158 131.316 149.994  0.00  0.00     0.164 HD
ATOM     27  O           0     137.138 131.510 149.205  0.00  0.00    -0.239 OA
BRANCH  25  28
ATOM     28  C           0     135.578 129.911 150.715  0.00  0.00     0.125 C 
BRANCH  28  29
ATOM     29  C           0     135.289 128.638 149.918  0.00  0.00     0.020 C 
BRANCH  29  30
ATOM     30  C           0     133.797 128.575 149.582  0.00  0.00     0.002 C 
BRANCH  30  31
ATOM     31  C           0     133.610 128.688 148.068  0.00  0.00     0.010 C 
BRANCH  31  32
ATOM     32  C           0     133.433 127.291 147.470  0.00  0.00     0.113 C 
BRANCH  32  33
ATOM     33  C           0     131.966 126.952 147.406  0.00  0.00     0.172 C 
ATOM     34  O           0     131.615 125.804 147.194  0.00  0.00    -0.648 OA
ATOM     35  O           0     131.131 127.826 147.566  0.00  0.00    -0.648 OA
ENDBRANCH  32  33
ENDBRANCH  31  32
ENDBRANCH  30  31
ENDBRANCH  29  30
ENDBRANCH  28  29
ENDBRANCH  25  28
ENDBRANCH  23  24
ENDBRANCH  22  23
ENDBRANCH   6  22
BRANCH  18  36
ATOM     36  O           0     135.624 134.887 142.676  0.00  0.00    -0.362 OA
ATOM     37  H           0     136.058 134.547 141.881  0.00  0.00     0.213 HD
ENDBRANCH  18  36
BRANCH  18  38
ATOM     38  O           0     136.013 135.107 144.981  0.00  0.00    -0.362 OA
ATOM     39  H           0     135.108 134.850 145.205  0.00  0.00     0.213 HD
ENDBRANCH  18  38
TORSDOF 11
ENDMDL
