MODEL 1
REMARK VINA RESULT:      -7.6      0.000      0.000
REMARK  7 active torsions:
REMARK  status: ('A' for Active; 'I' for Inactive)
REMARK    1  A    between atoms: C_6  and  C_7 
REMARK    2  A    between atoms: C_7  and  O_8 
REMARK    3  A    between atoms: O_8  and  C_9 
REMARK       I    between atoms: C_9  and  N_10 
REMARK    4  A    between atoms: C_22  and  O_23 
REMARK    5  A    between atoms: O_23  and  S_24 
REMARK    6  A    between atoms: C_28  and  O_29 
REMARK    7  A    between atoms: C_28  and  O_30 
ROOT
ATOM      1  N           0     135.218 130.000 145.062  0.00  0.00    -0.235 N 
ATOM      2  H           0     135.310 129.112 144.684  0.00  0.00     0.174 HD
ATOM      3  H           0     135.084 130.109 146.017  0.00  0.00     0.174 HD
ATOM      4  C           0     135.281 131.048 144.289  0.00  0.00     0.672 C 
ATOM      5  N           0     135.477 130.945 142.923  0.00  0.00    -0.218 N 
ATOM      6  C           0     134.935 131.995 142.065  0.00  0.00     0.151 C 
ATOM      7  C           0     135.334 133.386 142.520  0.00  0.00     0.180 C 
ATOM      8  N           0     136.736 133.642 142.127  0.00  0.00    -0.216 N 
ATOM      9  C           0     137.339 134.321 143.159  0.00  0.00     0.670 C 
ATOM     10  N           0     138.432 135.019 143.035  0.00  0.00    -0.235 N 
ATOM     11  H           0     138.872 135.083 142.173  0.00  0.00     0.174 HD
ATOM     12  H           0     138.805 135.476 143.806  0.00  0.00     0.174 HD
ATOM     13  C           0     135.339 133.568 144.031  0.00  0.00     0.220 C 
ATOM     14  N           0     136.646 134.172 144.334  0.00  0.00    -0.191 N 
ATOM     15  N           0     135.151 132.323 144.776  0.00  0.00    -0.180 N 
ATOM     16  C           0     134.739 132.737 146.129  0.00  0.00     0.183 C 
ATOM     17  C           0     133.808 133.949 145.893  0.00  0.00     0.230 C 
ATOM     18  C           0     134.209 134.500 144.500  0.00  0.00     0.238 C 
ATOM     19  H           0     135.961 130.195 142.545  0.00  0.00     0.178 HD
ATOM     20  H           0     137.155 133.379 141.293  0.00  0.00     0.178 HD
ATOM     21  H           0     136.963 134.425 145.215  0.00  0.00     0.180 HD
ENDROOT
BRANCH   6  22
ATOM     22  C           0     133.408 131.896 142.067  0.00  0.00     0.208 C 
BRANCH  22  23
ATOM     23  O           0     132.850 133.004 141.312  0.00  0.00    -0.302 OA
BRANCH  23  24
ATOM     24  C           0     131.603 132.919 140.814  0.00  0.00     0.358 C 
ATOM     25  N           0     131.405 132.958 139.481  0.00  0.00    -0.346 N 
ATOM     26  H           0     132.162 133.048 138.881  0.00  0.00     0.161 HD
ATOM     27  H           0     130.506 132.895 139.122  0.00  0.00     0.161 HD
ATOM     28  O           0     130.654 132.804 141.566  0.00  0.00    -0.239 OA
ENDBRANCH  23  24
ENDBRANCH  22  23
ENDBRANCH   6  22
BRANCH  18  29
ATOM     29  O           0     134.680 135.844 144.613  0.00  0.00    -0.360 OA
ATOM     30  H           0     135.623 135.793 144.825  0.00  0.00     0.213 HD
ENDBRANCH  18  29
BRANCH  18  31
ATOM     31  O           0     133.102 134.432 143.599  0.00  0.00    -0.360 OA
ATOM     32  H           0     133.069 133.526 143.264  0.00  0.00     0.213 HD
ENDBRANCH  18  31
BRANCH  17  33
ATOM     33  O           0     134.020 134.942 146.898  0.00  0.00    -0.244 OA
BRANCH  33  34
ATOM     34  S           0     132.816 134.890 147.828  0.00  0.00     0.252 S 
ATOM     35  O           0     131.863 133.978 147.216  0.00  0.00    -0.572 OA
ATOM     36  O           0     133.306 134.401 149.108  0.00  0.00    -0.572 OA
ATOM     37  O           0     132.304 136.249 147.914  0.00  0.00    -0.572 OA
ENDBRANCH  33  34
ENDBRANCH  17  33
TORSDOF 7
ENDMDL
MODEL 2
REMARK VINA RESULT:      -7.5      3.365      4.438
REMARK  7 active torsions:
REMARK  status: ('A' for Active; 'I' for Inactive)
REMARK    1  A    between atoms: C_6  and  C_7 
REMARK    2  A    between atoms: C_7  and  O_8 
REMARK    3  A    between atoms: O_8  and  C_9 
REMARK       I    between atoms: C_9  and  N_10 
REMARK    4  A    between atoms: C_22  and  O_23 
REMARK    5  A    between atoms: O_23  and  S_24 
REMARK    6  A    between atoms: C_28  and  O_29 
REMARK    7  A    between atoms: C_28  and  O_30 
ROOT
ATOM      1  N           0     137.792 135.156 143.248  0.00  0.00    -0.235 N 
ATOM      2  H           0     137.933 135.684 142.447  0.00  0.00     0.174 HD
ATOM      3  H           0     138.554 134.820 143.747  0.00  0.00     0.174 HD
ATOM      4  C           0     136.582 134.903 143.658  0.00  0.00     0.672 C 
ATOM      5  N           0     135.464 135.364 142.985  0.00  0.00    -0.218 N 
ATOM      6  C           0     134.230 134.589 143.080  0.00  0.00     0.151 C 
ATOM      7  C           0     133.849 134.268 144.512  0.00  0.00     0.180 C 
ATOM      8  N           0     133.266 135.473 145.141  0.00  0.00    -0.216 N 
ATOM      9  C           0     133.730 135.533 146.432  0.00  0.00     0.670 C 
ATOM     10  N           0     133.167 136.226 147.381  0.00  0.00    -0.235 N 
ATOM     11  H           0     132.367 136.743 147.195  0.00  0.00     0.174 HD
ATOM     12  H           0     133.547 136.225 148.274  0.00  0.00     0.174 HD
ATOM     13  C           0     135.031 133.925 145.407  0.00  0.00     0.220 C 
ATOM     14  N           0     134.860 134.772 146.599  0.00  0.00    -0.191 N 
ATOM     15  N           0     136.333 134.157 144.781  0.00  0.00    -0.180 N 
ATOM     16  C           0     137.293 133.374 145.579  0.00  0.00     0.183 C 
ATOM     17  C           0     136.532 132.073 145.927  0.00  0.00     0.230 C 
ATOM     18  C           0     135.031 132.442 145.815  0.00  0.00     0.238 C 
ATOM     19  H           0     135.499 136.181 142.464  0.00  0.00     0.178 HD
ATOM     20  H           0     132.663 136.105 144.718  0.00  0.00     0.178 HD
ATOM     21  H           0     135.446 134.788 147.372  0.00  0.00     0.180 HD
ENDROOT
BRANCH   6  22
ATOM     22  C           0     134.411 133.277 142.314  0.00  0.00     0.208 C 
BRANCH  22  23
ATOM     23  O           0     134.382 133.542 140.886  0.00  0.00    -0.302 OA
BRANCH  23  24
ATOM     24  C           0     133.353 134.225 140.349  0.00  0.00     0.358 C 
ATOM     25  N           0     133.570 135.417 139.760  0.00  0.00    -0.346 N 
ATOM     26  H           0     134.467 135.784 139.723  0.00  0.00     0.161 HD
ATOM     27  H           0     132.829 135.909 139.372  0.00  0.00     0.161 HD
ATOM     28  O           0     132.229 133.764 140.394  0.00  0.00    -0.239 OA
ENDBRANCH  23  24
ENDBRANCH  22  23
ENDBRANCH   6  22
BRANCH  18  29
ATOM     29  O           0     134.378 132.267 147.074  0.00  0.00    -0.360 OA
ATOM     30  H           0     133.777 131.516 146.974  0.00  0.00     0.213 HD
ENDBRANCH  18  29
BRANCH  18  31
ATOM     31  O           0     134.396 131.650 144.809  0.00  0.00    -0.360 OA
ATOM     32  H           0     133.476 131.538 145.080  0.00  0.00     0.213 HD
ENDBRANCH  18  31
BRANCH  17  33
ATOM     33  O           0     136.842 131.658 147.259  0.00  0.00    -0.244 OA
BRANCH  33  34
ATOM     34  S           0     137.510 130.294 147.151  0.00  0.00     0.252 S 
ATOM     35  O           0     138.574 130.435 146.169  0.00  0.00    -0.572 OA
ATOM     36  O           0     138.018 129.979 148.476  0.00  0.00    -0.572 OA
ATOM     37  O           0     136.478 129.364 146.718  0.00  0.00    -0.572 OA
ENDBRANCH  33  34
ENDBRANCH  17  33
TORSDOF 7
ENDMDL
MODEL 3
REMARK VINA RESULT:      -7.4      3.254      5.854
REMARK  7 active torsions:
REMARK  status: ('A' for Active; 'I' for Inactive)
REMARK    1  A    between atoms: C_6  and  C_7 
REMARK    2  A    between atoms: C_7  and  O_8 
REMARK    3  A    between atoms: O_8  and  C_9 
REMARK       I    between atoms: C_9  and  N_10 
REMARK    4  A    between atoms: C_22  and  O_23 
REMARK    5  A    between atoms: O_23  and  S_24 
REMARK    6  A    between atoms: C_28  and  O_29 
REMARK    7  A    between atoms: C_28  and  O_30 
ROOT
ATOM      1  N           0     134.488 130.557 144.334  0.00  0.00    -0.235 N 
ATOM      2  H           0     134.800 129.750 144.770  0.00  0.00     0.174 HD
ATOM      3  H           0     133.890 130.496 143.571  0.00  0.00     0.174 HD
ATOM      4  C           0     134.865 131.724 144.774  0.00  0.00     0.672 C 
ATOM      5  N           0     135.711 131.864 145.860  0.00  0.00    -0.218 N 
ATOM      6  C           0     136.568 133.045 145.923  0.00  0.00     0.151 C 
ATOM      7  C           0     135.799 134.336 145.723  0.00  0.00     0.180 C 
ATOM      8  N           0     135.073 134.667 146.969  0.00  0.00    -0.216 N 
ATOM      9  C           0     133.841 135.158 146.613  0.00  0.00     0.670 C 
ATOM     10  N           0     133.085 135.875 147.396  0.00  0.00    -0.235 N 
ATOM     11  H           0     133.383 136.092 148.293  0.00  0.00     0.174 HD
ATOM     12  H           0     132.224 136.192 147.081  0.00  0.00     0.174 HD
ATOM     13  C           0     134.702 134.251 144.673  0.00  0.00     0.220 C 
ATOM     14  N           0     133.506 134.801 145.331  0.00  0.00    -0.191 N 
ATOM     15  N           0     134.455 132.893 144.187  0.00  0.00    -0.180 N 
ATOM     16  C           0     133.730 133.062 142.915  0.00  0.00     0.183 C 
ATOM     17  C           0     134.397 134.290 142.252  0.00  0.00     0.230 C 
ATOM     18  C           0     135.039 135.079 143.422  0.00  0.00     0.238 C 
ATOM     19  H           0     135.735 131.195 146.562  0.00  0.00     0.178 HD
ATOM     20  H           0     135.407 134.557 147.873  0.00  0.00     0.178 HD
ATOM     21  H           0     132.629 134.898 144.926  0.00  0.00     0.180 HD
ENDROOT
BRANCH   6  22
ATOM     22  C           0     137.638 132.937 144.835  0.00  0.00     0.208 C 
BRANCH  22  23
ATOM     23  O           0     138.311 131.654 144.943  0.00  0.00    -0.302 OA
BRANCH  23  24
ATOM     24  C           0     139.226 131.454 145.909  0.00  0.00     0.358 C 
ATOM     25  N           0     139.233 130.298 146.602  0.00  0.00    -0.346 N 
ATOM     26  H           0     138.578 129.611 146.405  0.00  0.00     0.161 HD
ATOM     27  H           0     139.893 130.153 147.297  0.00  0.00     0.161 HD
ATOM     28  O           0     140.049 132.315 146.156  0.00  0.00    -0.239 OA
ENDBRANCH  23  24
ENDBRANCH  22  23
ENDBRANCH   6  22
BRANCH  18  29
ATOM     29  O           0     134.469 136.386 143.514  0.00  0.00    -0.360 OA
ATOM     30  H           0     134.860 136.912 142.803  0.00  0.00     0.213 HD
ENDBRANCH  18  29
BRANCH  18  31
ATOM     31  O           0     136.455 135.163 143.248  0.00  0.00    -0.360 OA
ATOM     32  H           0     136.848 135.116 144.130  0.00  0.00     0.213 HD
ENDBRANCH  18  31
BRANCH  17  33
ATOM     33  O           0     133.415 135.093 141.593  0.00  0.00    -0.244 OA
BRANCH  33  34
ATOM     34  S           0     133.229 134.505 140.202  0.00  0.00     0.252 S 
ATOM     35  O           0     132.078 133.618 140.280  0.00  0.00    -0.572 OA
ATOM     36  O           0     133.000 135.629 139.307  0.00  0.00    -0.572 OA
ATOM     37  O           0     134.457 133.791 139.889  0.00  0.00    -0.572 OA
ENDBRANCH  33  34
ENDBRANCH  17  33
TORSDOF 7
ENDMDL
MODEL 4
REMARK VINA RESULT:      -6.9      3.886      5.805
REMARK  7 active torsions:
REMARK  status: ('A' for Active; 'I' for Inactive)
REMARK    1  A    between atoms: C_6  and  C_7 
REMARK    2  A    between atoms: C_7  and  O_8 
REMARK    3  A    between atoms: O_8  and  C_9 
REMARK       I    between atoms: C_9  and  N_10 
REMARK    4  A    between atoms: C_22  and  O_23 
REMARK    5  A    between atoms: O_23  and  S_24 
REMARK    6  A    between atoms: C_28  and  O_29 
REMARK    7  A    between atoms: C_28  and  O_30 
ROOT
ATOM      1  N           0     133.763 132.145 148.680  0.00  0.00    -0.235 N 
ATOM      2  H           0     133.405 131.865 149.536  0.00  0.00     0.174 HD
ATOM      3  H           0     133.482 132.988 148.289  0.00  0.00     0.174 HD
ATOM      4  C           0     134.625 131.393 148.056  0.00  0.00     0.672 C 
ATOM      5  N           0     135.060 130.186 148.574  0.00  0.00    -0.218 N 
ATOM      6  C           0     135.482 129.144 147.641  0.00  0.00     0.151 C 
ATOM      7  C           0     136.492 129.642 146.626  0.00  0.00     0.180 C 
ATOM      8  N           0     137.818 129.748 147.273  0.00  0.00    -0.216 N 
ATOM      9  C           0     138.419 130.890 146.802  0.00  0.00     0.670 C 
ATOM     10  N           0     139.701 131.120 146.860  0.00  0.00    -0.235 N 
ATOM     11  H           0     140.294 130.461 147.254  0.00  0.00     0.174 HD
ATOM     12  H           0     140.061 131.949 146.508  0.00  0.00     0.174 HD
ATOM     13  C           0     136.221 131.050 146.118  0.00  0.00     0.220 C 
ATOM     14  N           0     137.503 131.759 146.264  0.00  0.00    -0.191 N 
ATOM     15  N           0     135.154 131.743 146.840  0.00  0.00    -0.180 N 
ATOM     16  C           0     134.740 132.848 145.958  0.00  0.00     0.183 C 
ATOM     17  C           0     134.801 132.247 144.534  0.00  0.00     0.230 C 
ATOM     18  C           0     135.786 131.055 144.643  0.00  0.00     0.238 C 
ATOM     19  H           0     135.084 130.035 149.531  0.00  0.00     0.178 HD
ATOM     20  H           0     138.195 129.123 147.912  0.00  0.00     0.178 HD
ATOM     21  H           0     137.672 132.682 146.020  0.00  0.00     0.180 HD
ENDROOT
BRANCH   6  22
ATOM     22  C           0     134.252 128.622 146.895  0.00  0.00     0.208 C 
BRANCH  22  23
ATOM     23  O           0     133.320 128.040 147.845  0.00  0.00    -0.302 OA
BRANCH  23  24
ATOM     24  C           0     132.289 127.294 147.405  0.00  0.00     0.358 C 
ATOM     25  N           0     132.500 126.026 147.000  0.00  0.00    -0.346 N 
ATOM     26  H           0     133.394 125.651 147.025  0.00  0.00     0.161 HD
ATOM     27  H           0     131.757 125.488 146.685  0.00  0.00     0.161 HD
ATOM     28  O           0     131.168 127.764 147.375  0.00  0.00    -0.239 OA
ENDBRANCH  23  24
ENDBRANCH  22  23
ENDBRANCH   6  22
BRANCH  18  29
ATOM     29  O           0     136.912 131.259 143.787  0.00  0.00    -0.360 OA
ATOM     30  H           0     137.201 130.384 143.493  0.00  0.00     0.213 HD
ENDBRANCH  18  29
BRANCH  18  31
ATOM     31  O           0     135.125 129.830 144.316  0.00  0.00    -0.360 OA
ATOM     32  H           0     135.539 129.497 143.508  0.00  0.00     0.213 HD
ENDBRANCH  18  31
BRANCH  17  33
ATOM     33  O           0     135.294 133.215 143.606  0.00  0.00    -0.244 OA
BRANCH  33  34
ATOM     34  S           0     134.559 132.982 142.295  0.00  0.00     0.252 S 
ATOM     35  O           0     135.580 132.750 141.285  0.00  0.00    -0.572 OA
ATOM     36  O           0     133.710 131.818 142.500  0.00  0.00    -0.572 OA
ATOM     37  O           0     133.789 134.189 142.035  0.00  0.00    -0.572 OA
ENDBRANCH  33  34
ENDBRANCH  17  33
TORSDOF 7
ENDMDL
MODEL 5
REMARK VINA RESULT:      -6.9      9.541     12.116
REMARK  7 active torsions:
REMARK  status: ('A' for Active; 'I' for Inactive)
REMARK    1  A    between atoms: C_6  and  C_7 
REMARK    2  A    between atoms: C_7  and  O_8 
REMARK    3  A    between atoms: O_8  and  C_9 
REMARK       I    between atoms: C_9  and  N_10 
REMARK    4  A    between atoms: C_22  and  O_23 
REMARK    5  A    between atoms: O_23  and  S_24 
REMARK    6  A    between atoms: C_28  and  O_29 
REMARK    7  A    between atoms: C_28  and  O_30 
ROOT
ATOM      1  N           0     133.320 135.768 130.964  0.00  0.00    -0.235 N 
ATOM      2  H           0     133.129 136.547 130.420  0.00  0.00     0.174 HD
ATOM      3  H           0     134.084 135.207 130.756  0.00  0.00     0.174 HD
ATOM      4  C           0     132.556 135.477 131.979  0.00  0.00     0.672 C 
ATOM      5  N           0     131.458 136.249 132.320  0.00  0.00    -0.218 N 
ATOM      6  C           0     130.337 135.599 132.993  0.00  0.00     0.151 C 
ATOM      7  C           0     130.770 134.791 134.201  0.00  0.00     0.180 C 
ATOM      8  N           0     131.050 135.709 135.325  0.00  0.00    -0.216 N 
ATOM      9  C           0     132.161 135.237 135.980  0.00  0.00     0.670 C 
ATOM     10  N           0     132.485 135.561 137.200  0.00  0.00    -0.235 N 
ATOM     11  H           0     131.926 136.173 137.704  0.00  0.00     0.174 HD
ATOM     12  H           0     133.285 135.190 137.604  0.00  0.00     0.174 HD
ATOM     13  C           0     132.078 134.039 134.009  0.00  0.00     0.220 C 
ATOM     14  N           0     132.887 134.380 135.190  0.00  0.00    -0.191 N 
ATOM     15  N           0     132.782 134.384 132.774  0.00  0.00    -0.180 N 
ATOM     16  C           0     133.733 133.281 132.547  0.00  0.00     0.183 C 
ATOM     17  C           0     132.958 132.012 132.973  0.00  0.00     0.230 C 
ATOM     18  C           0     131.863 132.517 133.946  0.00  0.00     0.238 C 
ATOM     19  H           0     131.434 137.197 132.116  0.00  0.00     0.178 HD
ATOM     20  H           0     130.541 136.501 135.558  0.00  0.00     0.178 HD
ATOM     21  H           0     133.781 134.054 135.380  0.00  0.00     0.180 HD
ENDROOT
BRANCH   6  22
ATOM     22  C           0     129.639 134.666 132.001  0.00  0.00     0.208 C 
BRANCH  22  23
ATOM     23  O           0     128.312 134.342 132.494  0.00  0.00    -0.302 OA
BRANCH  23  24
ATOM     24  C           0     127.595 133.366 131.905  0.00  0.00     0.358 C 
ATOM     25  N           0     128.224 132.379 131.237  0.00  0.00    -0.346 N 
ATOM     26  H           0     129.192 132.372 131.179  0.00  0.00     0.161 HD
ATOM     27  H           0     127.708 131.675 130.813  0.00  0.00     0.161 HD
ATOM     28  O           0     126.382 133.374 131.978  0.00  0.00    -0.239 OA
ENDBRANCH  23  24
ENDBRANCH  22  23
ENDBRANCH   6  22
BRANCH  18  29
ATOM     29  O           0     132.032 131.930 135.237  0.00  0.00    -0.360 OA
ATOM     30  H           0     132.466 131.077 135.101  0.00  0.00     0.213 HD
ENDBRANCH  18  29
BRANCH  18  31
ATOM     31  O           0     130.563 132.221 133.429  0.00  0.00    -0.360 OA
ATOM     32  H           0     130.184 133.058 133.128  0.00  0.00     0.213 HD
ENDBRANCH  18  31
BRANCH  17  33
ATOM     33  O           0     133.831 131.098 133.641  0.00  0.00    -0.244 OA
BRANCH  33  34
ATOM     34  S           0     133.532 129.715 133.081  0.00  0.00     0.252 S 
ATOM     35  O           0     134.488 128.807 133.696  0.00  0.00    -0.572 OA
ATOM     36  O           0     132.160 129.408 133.452  0.00  0.00    -0.572 OA
ATOM     37  O           0     133.708 129.809 131.639  0.00  0.00    -0.572 OA
ENDBRANCH  33  34
ENDBRANCH  17  33
TORSDOF 7
ENDMDL
MODEL 6
REMARK VINA RESULT:      -6.8      8.558     12.141
REMARK  7 active torsions:
REMARK  status: ('A' for Active; 'I' for Inactive)
REMARK    1  A    between atoms: C_6  and  C_7 
REMARK    2  A    between atoms: C_7  and  O_8 
REMARK    3  A    between atoms: O_8  and  C_9 
REMARK       I    between atoms: C_9  and  N_10 
REMARK    4  A    between atoms: C_22  and  O_23 
REMARK    5  A    between atoms: O_23  and  S_24 
REMARK    6  A    between atoms: C_28  and  O_29 
REMARK    7  A    between atoms: C_28  and  O_30 
ROOT
ATOM      1  N           0     130.950 133.153 137.034  0.00  0.00    -0.235 N 
ATOM      2  H           0     130.945 133.819 137.738  0.00  0.00     0.174 HD
ATOM      3  H           0     130.947 132.209 137.259  0.00  0.00     0.174 HD
ATOM      4  C           0     130.955 133.525 135.785  0.00  0.00     0.672 C 
ATOM      5  N           0     130.953 134.858 135.413  0.00  0.00    -0.218 N 
ATOM      6  C           0     131.567 135.222 134.139  0.00  0.00     0.151 C 
ATOM      7  C           0     131.057 134.383 132.983  0.00  0.00     0.180 C 
ATOM      8  N           0     129.714 134.862 132.593  0.00  0.00    -0.216 N 
ATOM      9  C           0     128.950 133.758 132.300  0.00  0.00     0.670 C 
ATOM     10  N           0     127.858 133.792 131.589  0.00  0.00    -0.235 N 
ATOM     11  H           0     127.539 134.635 131.229  0.00  0.00     0.174 HD
ATOM     12  H           0     127.365 132.974 131.418  0.00  0.00     0.174 HD
ATOM     13  C           0     130.837 132.918 133.327  0.00  0.00     0.220 C 
ATOM     14  N           0     129.479 132.617 132.848  0.00  0.00    -0.191 N 
ATOM     15  N           0     130.968 132.621 134.754  0.00  0.00    -0.180 N 
ATOM     16  C           0     131.173 131.164 134.831  0.00  0.00     0.183 C 
ATOM     17  C           0     132.081 130.839 133.622  0.00  0.00     0.230 C 
ATOM     18  C           0     131.855 132.004 132.625  0.00  0.00     0.238 C 
ATOM     19  H           0     130.555 135.533 135.984  0.00  0.00     0.178 HD
ATOM     20  H           0     129.425 135.787 132.550  0.00  0.00     0.178 HD
ATOM     21  H           0     129.033 131.757 132.907  0.00  0.00     0.180 HD
ENDROOT
BRANCH   6  22
ATOM     22  C           0     133.082 135.036 134.250  0.00  0.00     0.208 C 
BRANCH  22  23
ATOM     23  O           0     133.609 135.946 135.252  0.00  0.00    -0.302 OA
BRANCH  23  24
ATOM     24  C           0     134.239 135.460 136.338  0.00  0.00     0.358 C 
ATOM     25  N           0     135.537 135.753 136.551  0.00  0.00    -0.346 N 
ATOM     26  H           0     136.018 136.313 135.922  0.00  0.00     0.161 HD
ATOM     27  H           0     135.990 135.404 137.335  0.00  0.00     0.161 HD
ATOM     28  O           0     133.636 134.759 137.127  0.00  0.00    -0.239 OA
ENDBRANCH  23  24
ENDBRANCH  22  23
ENDBRANCH   6  22
BRANCH  18  29
ATOM     29  O           0     131.322 131.510 131.394  0.00  0.00    -0.360 OA
ATOM     30  H           0     130.948 132.270 130.927  0.00  0.00     0.213 HD
ENDBRANCH  18  29
BRANCH  18  31
ATOM     31  O           0     133.078 132.707 132.393  0.00  0.00    -0.360 OA
ATOM     32  H           0     132.857 133.487 131.867  0.00  0.00     0.213 HD
ENDBRANCH  18  31
BRANCH  17  33
ATOM     33  O           0     131.695 129.597 133.030  0.00  0.00    -0.244 OA
BRANCH  33  34
ATOM     34  S           0     132.976 128.820 132.763  0.00  0.00     0.252 S 
ATOM     35  O           0     133.981 129.362 133.664  0.00  0.00    -0.572 OA
ATOM     36  O           0     132.676 127.425 133.045  0.00  0.00    -0.572 OA
ATOM     37  O           0     133.309 129.043 131.365  0.00  0.00    -0.572 OA
ENDBRANCH  33  34
ENDBRANCH  17  33
TORSDOF 7
ENDMDL
MODEL 7
REMARK VINA RESULT:      -6.7      7.375     11.193
REMARK  7 active torsions:
REMARK  status: ('A' for Active; 'I' for Inactive)
REMARK    1  A    between atoms: C_6  and  C_7 
REMARK    2  A    between atoms: C_7  and  O_8 
REMARK    3  A    between atoms: O_8  and  C_9 
REMARK       I    between atoms: C_9  and  N_10 
REMARK    4  A    between atoms: C_22  and  O_23 
REMARK    5  A    between atoms: O_23  and  S_24 
REMARK    6  A    between atoms: C_28  and  O_29 
REMARK    7  A    between atoms: C_28  and  O_30 
ROOT
ATOM      1  N           0     130.321 132.740 136.566  0.00  0.00    -0.235 N 
ATOM      2  H           0     129.875 133.181 137.305  0.00  0.00     0.174 HD
ATOM      3  H           0     130.129 131.809 136.369  0.00  0.00     0.174 HD
ATOM      4  C           0     131.174 133.399 135.833  0.00  0.00     0.672 C 
ATOM      5  N           0     131.477 134.728 136.070  0.00  0.00    -0.218 N 
ATOM      6  C           0     132.799 135.216 135.687  0.00  0.00     0.151 C 
ATOM      7  C           0     133.156 134.873 134.254  0.00  0.00     0.180 C 
ATOM      8  N           0     132.438 135.789 133.342  0.00  0.00    -0.216 N 
ATOM      9  C           0     132.020 135.054 132.260  0.00  0.00     0.670 C 
ATOM     10  N           0     131.685 135.569 131.111  0.00  0.00    -0.235 N 
ATOM     11  H           0     131.723 136.529 130.979  0.00  0.00     0.174 HD
ATOM     12  H           0     131.398 134.991 130.385  0.00  0.00     0.174 HD
ATOM     13  C           0     132.702 133.490 133.813  0.00  0.00     0.220 C 
ATOM     14  N           0     131.999 133.710 132.539  0.00  0.00    -0.191 N 
ATOM     15  N           0     131.834 132.818 134.781  0.00  0.00    -0.180 N 
ATOM     16  C           0     131.874 131.391 134.415  0.00  0.00     0.183 C 
ATOM     17  C           0     133.343 131.142 133.999  0.00  0.00     0.230 C 
ATOM     18  C           0     133.889 132.536 133.598  0.00  0.00     0.238 C 
ATOM     19  H           0     130.828 135.321 136.479  0.00  0.00     0.178 HD
ATOM     20  H           0     132.291 136.738 133.482  0.00  0.00     0.178 HD
ATOM     21  H           0     131.593 133.023 131.988  0.00  0.00     0.180 HD
ENDROOT
BRANCH   6  22
ATOM     22  C           0     133.843 134.593 136.616  0.00  0.00     0.208 C 
BRANCH  22  23
ATOM     23  O           0     134.038 135.453 137.770  0.00  0.00    -0.302 OA
BRANCH  23  24
ATOM     24  C           0     133.397 135.187 138.924  0.00  0.00     0.358 C 
ATOM     25  N           0     133.494 136.042 139.961  0.00  0.00    -0.346 N 
ATOM     26  H           0     134.025 136.849 139.876  0.00  0.00     0.161 HD
ATOM     27  H           0     133.031 135.852 140.791  0.00  0.00     0.161 HD
ATOM     28  O           0     132.730 134.176 139.030  0.00  0.00    -0.239 OA
ENDBRANCH  23  24
ENDBRANCH  22  23
ENDBRANCH   6  22
BRANCH  18  29
ATOM     29  O           0     134.294 132.538 132.228  0.00  0.00    -0.360 OA
ATOM     30  H           0     134.301 131.615 131.937  0.00  0.00     0.213 HD
ENDBRANCH  18  29
BRANCH  18  31
ATOM     31  O           0     134.982 132.905 134.442  0.00  0.00    -0.360 OA
ATOM     32  H           0     135.786 132.572 134.020  0.00  0.00     0.213 HD
ENDBRANCH  18  31
BRANCH  17  33
ATOM     33  O           0     133.399 130.248 132.885  0.00  0.00    -0.244 OA
BRANCH  33  34
ATOM     34  S           0     134.547 129.285 133.152  0.00  0.00     0.252 S 
ATOM     35  O           0     135.674 129.761 132.365  0.00  0.00    -0.572 OA
ATOM     36  O           0     134.807 129.342 134.582  0.00  0.00    -0.572 OA
ATOM     37  O           0     134.089 127.972 132.725  0.00  0.00    -0.572 OA
ENDBRANCH  33  34
ENDBRANCH  17  33
TORSDOF 7
ENDMDL
MODEL 8
REMARK VINA RESULT:      -6.7      3.990      5.466
REMARK  7 active torsions:
REMARK  status: ('A' for Active; 'I' for Inactive)
REMARK    1  A    between atoms: C_6  and  C_7 
REMARK    2  A    between atoms: C_7  and  O_8 
REMARK    3  A    between atoms: O_8  and  C_9 
REMARK       I    between atoms: C_9  and  N_10 
REMARK    4  A    between atoms: C_22  and  O_23 
REMARK    5  A    between atoms: O_23  and  S_24 
REMARK    6  A    between atoms: C_28  and  O_29 
REMARK    7  A    between atoms: C_28  and  O_30 
ROOT
ATOM      1  N           0     134.407 134.780 146.795  0.00  0.00    -0.235 N 
ATOM      2  H           0     133.625 135.302 146.560  0.00  0.00     0.174 HD
ATOM      3  H           0     134.994 135.080 147.507  0.00  0.00     0.174 HD
ATOM      4  C           0     134.667 133.672 146.159  0.00  0.00     0.672 C 
ATOM      5  N           0     133.857 133.200 145.141  0.00  0.00    -0.218 N 
ATOM      6  C           0     134.466 132.381 144.096  0.00  0.00     0.151 C 
ATOM      7  C           0     135.282 131.232 144.655  0.00  0.00     0.180 C 
ATOM      8  N           0     134.368 130.162 145.108  0.00  0.00    -0.216 N 
ATOM      9  C           0     134.874 129.652 146.278  0.00  0.00     0.670 C 
ATOM     10  N           0     134.554 128.487 146.768  0.00  0.00    -0.235 N 
ATOM     11  H           0     133.922 127.921 146.299  0.00  0.00     0.174 HD
ATOM     12  H           0     134.950 128.186 147.601  0.00  0.00     0.174 HD
ATOM     13  C           0     136.078 131.584 145.902  0.00  0.00     0.220 C 
ATOM     14  N           0     135.758 130.521 146.868  0.00  0.00    -0.191 N 
ATOM     15  N           0     135.763 132.903 146.451  0.00  0.00    -0.180 N 
ATOM     16  C           0     136.898 133.241 147.328  0.00  0.00     0.183 C 
ATOM     17  C           0     138.139 132.707 146.574  0.00  0.00     0.230 C 
ATOM     18  C           0     137.592 131.605 145.631  0.00  0.00     0.238 C 
ATOM     19  H           0     132.910 133.407 145.122  0.00  0.00     0.178 HD
ATOM     20  H           0     133.558 129.872 144.659  0.00  0.00     0.178 HD
ATOM     21  H           0     136.113 130.445 147.767  0.00  0.00     0.180 HD
ENDROOT
BRANCH   6  22
ATOM     22  C           0     135.380 133.266 143.245  0.00  0.00     0.208 C 
BRANCH  22  23
ATOM     23  O           0     134.573 134.066 142.340  0.00  0.00    -0.302 OA
BRANCH  23  24
ATOM     24  C           0     134.359 135.369 142.604  0.00  0.00     0.358 C 
ATOM     25  N           0     133.967 136.200 141.618  0.00  0.00    -0.346 N 
ATOM     26  H           0     133.840 135.859 140.719  0.00  0.00     0.161 HD
ATOM     27  H           0     133.811 137.138 141.807  0.00  0.00     0.161 HD
ATOM     28  O           0     134.516 135.795 143.731  0.00  0.00    -0.239 OA
ENDBRANCH  23  24
ENDBRANCH  22  23
ENDBRANCH   6  22
BRANCH  18  29
ATOM     29  O           0     138.178 130.341 145.947  0.00  0.00    -0.360 OA
ATOM     30  H           0     138.614 130.442 146.805  0.00  0.00     0.213 HD
ENDBRANCH  18  29
BRANCH  18  31
ATOM     31  O           0     137.848 131.947 144.266  0.00  0.00    -0.360 OA
ATOM     32  H           0     137.115 132.507 143.977  0.00  0.00     0.213 HD
ENDBRANCH  18  31
BRANCH  17  33
ATOM     33  O           0     139.078 132.148 147.496  0.00  0.00    -0.244 OA
BRANCH  33  34
ATOM     34  S           0     140.459 132.337 146.885  0.00  0.00     0.252 S 
ATOM     35  O           0     140.246 132.761 145.510  0.00  0.00    -0.572 OA
ATOM     36  O           0     141.125 133.356 147.681  0.00  0.00    -0.572 OA
ATOM     37  O           0     141.125 131.046 146.969  0.00  0.00    -0.572 OA
ENDBRANCH  33  34
ENDBRANCH  17  33
TORSDOF 7
ENDMDL
MODEL 9
REMARK VINA RESULT:      -6.7      3.904      4.876
REMARK  7 active torsions:
REMARK  status: ('A' for Active; 'I' for Inactive)
REMARK    1  A    between atoms: C_6  and  C_7 
REMARK    2  A    between atoms: C_7  and  O_8 
REMARK    3  A    between atoms: O_8  and  C_9 
REMARK       I    between atoms: C_9  and  N_10 
REMARK    4  A    between atoms: C_22  and  O_23 
REMARK    5  A    between atoms: O_23  and  S_24 
REMARK    6  A    between atoms: C_28  and  O_29 
REMARK    7  A    between atoms: C_28  and  O_30 
ROOT
ATOM      1  N           0     139.551 130.303 146.663  0.00  0.00    -0.235 N 
ATOM      2  H           0     140.397 130.356 146.192  0.00  0.00     0.174 HD
ATOM      3  H           0     139.401 129.596 147.310  0.00  0.00     0.174 HD
ATOM      4  C           0     138.620 131.185 146.433  0.00  0.00     0.672 C 
ATOM      5  N           0     138.789 132.215 145.524  0.00  0.00    -0.218 N 
ATOM      6  C           0     137.605 132.751 144.858  0.00  0.00     0.151 C 
ATOM      7  C           0     136.504 133.124 145.832  0.00  0.00     0.180 C 
ATOM      8  N           0     136.848 134.406 146.485  0.00  0.00    -0.216 N 
ATOM      9  C           0     136.481 134.310 147.805  0.00  0.00     0.670 C 
ATOM     10  N           0     136.295 135.334 148.589  0.00  0.00    -0.235 N 
ATOM     11  H           0     136.415 136.234 148.248  0.00  0.00     0.174 HD
ATOM     12  H           0     136.036 135.196 149.514  0.00  0.00     0.174 HD
ATOM     13  C           0     136.347 132.154 146.993  0.00  0.00     0.220 C 
ATOM     14  N           0     136.336 133.002 148.196  0.00  0.00    -0.191 N 
ATOM     15  N           0     137.406 131.148 147.070  0.00  0.00    -0.180 N 
ATOM     16  C           0     136.864 130.076 147.924  0.00  0.00     0.183 C 
ATOM     17  C           0     135.375 129.977 147.517  0.00  0.00     0.230 C 
ATOM     18  C           0     135.034 131.358 146.902  0.00  0.00     0.238 C 
ATOM     19  H           0     139.670 132.571 145.334  0.00  0.00     0.178 HD
ATOM     20  H           0     137.256 135.175 146.058  0.00  0.00     0.178 HD
ATOM     21  H           0     136.240 132.690 149.109  0.00  0.00     0.180 HD
ENDROOT
BRANCH   6  22
ATOM     22  C           0     137.066 131.699 143.886  0.00  0.00     0.208 C 
BRANCH  22  23
ATOM     23  O           0     136.929 132.286 142.565  0.00  0.00    -0.302 OA
BRANCH  23  24
ATOM     24  C           0     135.709 132.607 142.094  0.00  0.00     0.358 C 
ATOM     25  N           0     135.590 133.276 140.930  0.00  0.00    -0.346 N 
ATOM     26  H           0     136.383 133.526 140.432  0.00  0.00     0.161 HD
ATOM     27  H           0     134.711 133.506 140.591  0.00  0.00     0.161 HD
ATOM     28  O           0     134.714 132.293 142.719  0.00  0.00    -0.239 OA
ENDBRANCH  23  24
ENDBRANCH  22  23
ENDBRANCH   6  22
BRANCH  18  29
ATOM     29  O           0     134.003 131.999 147.657  0.00  0.00    -0.360 OA
ATOM     30  H           0     134.407 132.768 148.083  0.00  0.00     0.213 HD
ENDBRANCH  18  29
BRANCH  18  31
ATOM     31  O           0     134.635 131.211 145.537  0.00  0.00    -0.360 OA
ATOM     32  H           0     135.109 131.886 145.033  0.00  0.00     0.213 HD
ENDBRANCH  18  31
BRANCH  17  33
ATOM     33  O           0     134.562 129.732 148.667  0.00  0.00    -0.244 OA
BRANCH  33  34
ATOM     34  S           0     134.033 128.311 148.535  0.00  0.00     0.252 S 
ATOM     35  O           0     134.064 127.990 147.117  0.00  0.00    -0.572 OA
ATOM     36  O           0     134.927 127.466 149.312  0.00  0.00    -0.572 OA
ATOM     37  O           0     132.680 128.325 149.070  0.00  0.00    -0.572 OA
ENDBRANCH  33  34
ENDBRANCH  17  33
TORSDOF 7
ENDMDL
