# created with PyMOL 2.3.4
@<TRIPOS>MOLECULE
ligand_out_0001
37 39 1                 
SMALL
USER_CHARGES
@<TRIPOS>ATOM
1	   N	135.218	130.000	145.062	N.3	1	UNK0	-0.235	
2	   N	135.477	130.945	142.923	N.3	1	UNK0	-0.218	
3	   N	136.736	133.642	142.127	N.3	1	UNK0	-0.216	
4	   N	138.432	135.019	143.035	N.3	1	UNK0	-0.235	
5	   N	136.646	134.172	144.334	N.3	1	UNK0	-0.191	
6	   N	135.151	132.323	144.776	N.3	1	UNK0	-0.180	
7	   N	131.405	132.958	139.481	N.pl3	1	UNK0	-0.346	
8	   C	135.281	131.048	144.289	C.3	1	UNK0	0.672	
9	   C	134.935	131.995	142.065	C.3	1	UNK0	0.151	
10	   C	135.334	133.386	142.520	C.3	1	UNK0	0.180	
11	   C	137.339	134.321	143.159	C.3	1	UNK0	0.670	
12	   C	135.339	133.568	144.031	C.3	1	UNK0	0.220	
13	   C	134.739	132.737	146.129	C.3	1	UNK0	0.183	
14	   C	133.808	133.949	145.893	C.2	1	UNK0	0.230	
15	   C	134.209	134.500	144.500	C.3	1	UNK0	0.238	
16	   C	133.408	131.896	142.067	C.2	1	UNK0	0.208	
17	   C	131.603	132.919	140.814	C.2	1	UNK0	0.358	
18	   O	132.850	133.004	141.312	O.2	1	UNK0	-0.302	
19	   O	130.654	132.804	141.566	O.co2	1	UNK0	-0.239	
20	   O	134.680	135.844	144.613	O.2	1	UNK0	-0.360	
21	   O	133.102	134.432	143.599	O.2	1	UNK0	-0.360	
22	   O	134.020	134.942	146.898	O.2	1	UNK0	-0.244	
23	   O	131.863	133.978	147.216	O.3	1	UNK0	-0.572	
24	   O	133.306	134.401	149.108	O.3	1	UNK0	-0.572	
25	   O	132.304	136.249	147.914	O.3	1	UNK0	-0.572	
26	   S	132.816	134.890	147.828	S.3	1	UNK0	0.252	
27	   H	135.310	129.112	144.684	 H	1	UNK0	0.174	
28	   H	135.084	130.109	146.017	 H	1	UNK0	0.174	
29	   H	138.872	135.083	142.173	 H	1	UNK0	0.174	
30	   H	138.805	135.476	143.806	 H	1	UNK0	0.174	
31	   H	135.961	130.195	142.545	 H	1	UNK0	0.178	
32	   H	137.155	133.379	141.293	 H	1	UNK0	0.178	
33	   H	136.963	134.425	145.215	 H	1	UNK0	0.180	
34	   H	132.162	133.048	138.881	 H	1	UNK0	0.161	
35	   H	130.506	132.895	139.122	 H	1	UNK0	0.161	
36	   H	135.623	135.793	144.825	 H	1	UNK0	0.213	
37	   H	133.069	133.526	143.264	 H	1	UNK0	0.213	
@<TRIPOS>BOND
1 1 8 1
2 1 27 1
3 1 28 1
4 2 9 1
5 2 31 1
6 3 11 1
7 3 32 1
8 4 29 1
9 4 30 1
10 5 33 1
11 6 13 1
12 7 34 1
13 7 35 1
14 2 8 1
15 6 8 1
16 9 10 1
17 9 16 1
18 3 10 1
19 10 12 1
20 4 11 1
21 5 11 1
22 5 12 1
23 6 12 1
24 12 15 1
25 13 14 1
26 14 15 1
27 14 22 2
28 15 20 2
29 15 21 2
30 16 18 2
31 7 17 1
32 17 19 2
33 17 18 2
34 20 36 1
35 21 37 1
36 22 26 1
37 23 26 1
38 24 26 1
39 25 26 1
@<TRIPOS>SUBSTRUCTURE
1	UNK0	1	GROUP	1 ****	UNK
