# created with PyMOL 2.3.4
@<TRIPOS>MOLECULE
ligand_out_0001
30 32 1                 
SMALL
USER_CHARGES
@<TRIPOS>ATOM
1	   N	135.510	132.601	147.031	N.3	1	UNK0	-0.235	
2	   N	136.828	134.319	146.110	N.3	1	UNK0	-0.218	
3	   N	136.273	136.086	143.648	N.3	1	UNK0	-0.216	
4	   N	134.319	136.896	142.586	N.3	1	UNK0	-0.235	
5	   N	134.614	134.617	143.145	N.3	1	UNK0	-0.191	
6	   N	135.484	133.007	144.726	N.3	1	UNK0	-0.183	
7	   C	135.920	133.280	145.997	C.3	1	UNK0	0.672	
8	   C	137.694	134.606	144.971	C.3	1	UNK0	0.151	
9	   C	136.924	134.759	143.673	C.3	1	UNK0	0.180	
10	   C	135.026	135.926	143.095	C.3	1	UNK0	0.670	
11	   C	135.768	133.783	143.518	C.3	1	UNK0	0.217	
12	   C	134.689	131.853	144.270	C.3	1	UNK0	0.150	
13	   C	135.326	131.460	142.916	C.3	1	UNK0	0.093	
14	   C	136.039	132.742	142.418	C.3	1	UNK0	0.209	
15	   C	138.700	133.465	144.814	C.2	1	UNK0	0.206	
16	   C	140.677	133.172	146.179	C.2	1	UNK0	0.254	
17	   C	140.876	133.698	147.577	C.3	1	UNK0	0.126	
18	   O	140.005	133.902	145.276	O.2	1	UNK0	-0.320	
19	   O	141.125	132.093	145.871	O.co2	1	UNK0	-0.266	
20	   O	135.484	133.170	141.173	O.2	1	UNK0	-0.362	
21	   O	137.443	132.512	142.287	O.2	1	UNK0	-0.362	
22	   H	135.842	132.819	147.916	 H	1	UNK0	0.174	
23	   H	134.870	131.882	146.917	 H	1	UNK0	0.174	
24	   H	134.670	137.801	142.583	 H	1	UNK0	0.174	
25	   H	133.445	136.715	142.211	 H	1	UNK0	0.174	
26	   H	136.885	134.843	146.925	 H	1	UNK0	0.178	
27	   H	136.657	136.919	143.964	 H	1	UNK0	0.178	
28	   H	133.717	134.297	142.962	 H	1	UNK0	0.180	
29	   H	136.150	133.725	140.747	 H	1	UNK0	0.213	
30	   H	137.668	132.679	141.361	 H	1	UNK0	0.213	
@<TRIPOS>BOND
1 1 7 1
2 1 22 1
3 1 23 1
4 2 8 1
5 2 26 1
6 3 10 1
7 3 27 1
8 4 24 1
9 4 25 1
10 5 28 1
11 6 12 1
12 2 7 1
13 6 7 1
14 8 9 1
15 8 15 1
16 3 9 1
17 9 11 1
18 4 10 1
19 5 10 1
20 5 11 1
21 6 11 1
22 11 14 1
23 12 13 1
24 13 14 1
25 14 20 2
26 14 21 2
27 15 18 2
28 16 17 1
29 16 19 2
30 16 18 2
31 20 29 1
32 21 30 1
@<TRIPOS>SUBSTRUCTURE
1	UNK0	1	GROUP	1 ****	UNK
