MODEL 1
REMARK VINA RESULT:      -7.9      0.000      0.000
REMARK  5 active torsions:
REMARK  status: ('A' for Active; 'I' for Inactive)
REMARK    1  A    between atoms: C_6  and  C_7 
REMARK    2  A    between atoms: C_7  and  O_8 
REMARK    3  A    between atoms: O_8  and  C_9 
REMARK    4  A    between atoms: C_23  and  O_24 
REMARK    5  A    between atoms: C_23  and  O_25 
ROOT
ATOM      1  N           0     135.510 132.601 147.031  0.00  0.00    -0.235 N 
ATOM      2  H           0     135.842 132.819 147.916  0.00  0.00     0.174 HD
ATOM      3  H           0     134.870 131.882 146.917  0.00  0.00     0.174 HD
ATOM      4  C           0     135.920 133.280 145.997  0.00  0.00     0.672 C 
ATOM      5  N           0     136.828 134.319 146.110  0.00  0.00    -0.218 N 
ATOM      6  C           0     137.694 134.606 144.971  0.00  0.00     0.151 C 
ATOM      7  C           0     136.924 134.759 143.673  0.00  0.00     0.180 C 
ATOM      8  N           0     136.273 136.086 143.648  0.00  0.00    -0.216 N 
ATOM      9  C           0     135.026 135.926 143.095  0.00  0.00     0.670 C 
ATOM     10  N           0     134.319 136.896 142.586  0.00  0.00    -0.235 N 
ATOM     11  H           0     134.670 137.801 142.583  0.00  0.00     0.174 HD
ATOM     12  H           0     133.445 136.715 142.211  0.00  0.00     0.174 HD
ATOM     13  C           0     135.768 133.783 143.518  0.00  0.00     0.217 C 
ATOM     14  N           0     134.614 134.617 143.145  0.00  0.00    -0.191 N 
ATOM     15  N           0     135.484 133.007 144.726  0.00  0.00    -0.183 N 
ATOM     16  C           0     134.689 131.853 144.270  0.00  0.00     0.150 C 
ATOM     17  C           0     135.326 131.460 142.916  0.00  0.00     0.093 C 
ATOM     18  C           0     136.039 132.742 142.418  0.00  0.00     0.209 C 
ATOM     19  H           0     136.885 134.843 146.925  0.00  0.00     0.178 HD
ATOM     20  H           0     136.657 136.919 143.964  0.00  0.00     0.178 HD
ATOM     21  H           0     133.717 134.297 142.962  0.00  0.00     0.180 HD
ENDROOT
BRANCH   6  22
ATOM     22  C           0     138.700 133.465 144.814  0.00  0.00     0.206 C 
BRANCH  22  23
ATOM     23  O           0     140.005 133.902 145.276  0.00  0.00    -0.320 OA
BRANCH  23  24
ATOM     24  C           0     140.677 133.172 146.179  0.00  0.00     0.254 C 
ATOM     25  C           0     140.876 133.698 147.577  0.00  0.00     0.126 C 
ATOM     26  O           0     141.125 132.093 145.871  0.00  0.00    -0.266 OA
ENDBRANCH  23  24
ENDBRANCH  22  23
ENDBRANCH   6  22
BRANCH  18  27
ATOM     27  O           0     135.484 133.170 141.173  0.00  0.00    -0.362 OA
ATOM     28  H           0     136.150 133.725 140.747  0.00  0.00     0.213 HD
ENDBRANCH  18  27
BRANCH  18  29
ATOM     29  O           0     137.443 132.512 142.287  0.00  0.00    -0.362 OA
ATOM     30  H           0     137.668 132.679 141.361  0.00  0.00     0.213 HD
ENDBRANCH  18  29
TORSDOF 5
ENDMDL
MODEL 2
REMARK VINA RESULT:      -7.3      2.461      5.508
REMARK  5 active torsions:
REMARK  status: ('A' for Active; 'I' for Inactive)
REMARK    1  A    between atoms: C_6  and  C_7 
REMARK    2  A    between atoms: C_7  and  O_8 
REMARK    3  A    between atoms: O_8  and  C_9 
REMARK    4  A    between atoms: C_23  and  O_24 
REMARK    5  A    between atoms: C_23  and  O_25 
ROOT
ATOM      1  N           0     136.262 134.890 147.778  0.00  0.00    -0.235 N 
ATOM      2  H           0     135.394 134.839 148.210  0.00  0.00     0.174 HD
ATOM      3  H           0     136.848 135.641 147.959  0.00  0.00     0.174 HD
ATOM      4  C           0     136.641 133.947 146.963  0.00  0.00     0.672 C 
ATOM      5  N           0     135.843 132.852 146.680  0.00  0.00    -0.218 N 
ATOM      6  C           0     135.995 132.204 145.381  0.00  0.00     0.151 C 
ATOM      7  C           0     137.438 131.861 145.063  0.00  0.00     0.180 C 
ATOM      8  N           0     137.832 130.659 145.828  0.00  0.00    -0.216 N 
ATOM      9  C           0     139.119 130.850 146.267  0.00  0.00     0.670 C 
ATOM     10  N           0     139.912 129.888 146.650  0.00  0.00    -0.235 N 
ATOM     11  H           0     139.602 128.969 146.635  0.00  0.00     0.174 HD
ATOM     12  H           0     140.812 130.091 146.948  0.00  0.00     0.174 HD
ATOM     13  C           0     138.439 132.918 145.504  0.00  0.00     0.217 C 
ATOM     14  N           0     139.468 132.177 146.252  0.00  0.00    -0.191 N 
ATOM     15  N           0     137.855 133.978 146.327  0.00  0.00    -0.183 N 
ATOM     16  C           0     138.819 135.091 146.270  0.00  0.00     0.150 C 
ATOM     17  C           0     139.332 135.080 144.810  0.00  0.00     0.093 C 
ATOM     18  C           0     139.081 133.637 144.305  0.00  0.00     0.209 C 
ATOM     19  H           0     135.200 132.525 147.328  0.00  0.00     0.178 HD
ATOM     20  H           0     137.280 129.877 145.991  0.00  0.00     0.178 HD
ATOM     21  H           0     140.259 132.561 146.662  0.00  0.00     0.180 HD
ENDROOT
BRANCH   6  22
ATOM     22  C           0     135.461 133.140 144.296  0.00  0.00     0.206 C 
BRANCH  22  23
ATOM     23  O           0     135.469 132.453 143.017  0.00  0.00    -0.320 OA
BRANCH  23  24
ATOM     24  C           0     134.310 132.117 142.428  0.00  0.00     0.254 C 
ATOM     25  C           0     133.484 133.169 141.734  0.00  0.00     0.126 C 
ATOM     26  O           0     133.929 130.971 142.456  0.00  0.00    -0.266 OA
ENDBRANCH  23  24
ENDBRANCH  22  23
ENDBRANCH   6  22
BRANCH  18  27
ATOM     27  O           0     140.314 133.013 143.945  0.00  0.00    -0.362 OA
ATOM     28  H           0     140.098 132.305 143.324  0.00  0.00     0.213 HD
ENDBRANCH  18  27
BRANCH  18  29
ATOM     29  O           0     138.182 133.647 143.194  0.00  0.00    -0.362 OA
ATOM     30  H           0     138.726 133.618 142.395  0.00  0.00     0.213 HD
ENDBRANCH  18  29
TORSDOF 5
ENDMDL
MODEL 3
REMARK VINA RESULT:      -7.3      1.834      2.409
REMARK  5 active torsions:
REMARK  status: ('A' for Active; 'I' for Inactive)
REMARK    1  A    between atoms: C_6  and  C_7 
REMARK    2  A    between atoms: C_7  and  O_8 
REMARK    3  A    between atoms: O_8  and  C_9 
REMARK    4  A    between atoms: C_23  and  O_24 
REMARK    5  A    between atoms: C_23  and  O_25 
ROOT
ATOM      1  N           0     135.921 134.705 146.936  0.00  0.00    -0.235 N 
ATOM      2  H           0     136.262 135.584 147.164  0.00  0.00     0.174 HD
ATOM      3  H           0     135.542 134.139 147.626  0.00  0.00     0.174 HD
ATOM      4  C           0     135.966 134.287 145.702  0.00  0.00     0.672 C 
ATOM      5  N           0     136.492 135.061 144.682  0.00  0.00    -0.218 N 
ATOM      6  C           0     137.081 134.380 143.532  0.00  0.00     0.151 C 
ATOM      7  C           0     136.160 133.333 142.937  0.00  0.00     0.180 C 
ATOM      8  N           0     135.113 134.003 142.137  0.00  0.00    -0.216 N 
ATOM      9  C           0     133.932 133.338 142.359  0.00  0.00     0.670 C 
ATOM     10  N           0     132.895 133.406 141.572  0.00  0.00    -0.235 N 
ATOM     11  H           0     132.928 133.954 140.771  0.00  0.00     0.174 HD
ATOM     12  H           0     132.090 132.910 141.786  0.00  0.00     0.174 HD
ATOM     13  C           0     135.376 132.536 143.969  0.00  0.00     0.217 C 
ATOM     14  N           0     133.978 132.593 143.510  0.00  0.00    -0.191 N 
ATOM     15  N           0     135.501 133.052 145.333  0.00  0.00    -0.183 N 
ATOM     16  C           0     135.079 131.945 146.208  0.00  0.00     0.150 C 
ATOM     17  C           0     135.650 130.678 145.527  0.00  0.00     0.093 C 
ATOM     18  C           0     135.844 131.072 144.041  0.00  0.00     0.209 C 
ATOM     19  H           0     136.468 136.030 144.729  0.00  0.00     0.178 HD
ATOM     20  H           0     135.238 134.774 141.560  0.00  0.00     0.178 HD
ATOM     21  H           0     133.220 132.173 143.945  0.00  0.00     0.180 HD
ENDROOT
BRANCH   6  22
ATOM     22  C           0     138.379 133.702 143.972  0.00  0.00     0.206 C 
BRANCH  22  23
ATOM     23  O           0     139.422 134.701 144.121  0.00  0.00    -0.320 OA
BRANCH  23  24
ATOM     24  C           0     139.590 135.325 145.297  0.00  0.00     0.254 C 
ATOM     25  C           0     140.046 134.549 146.505  0.00  0.00     0.126 C 
ATOM     26  O           0     139.374 136.511 145.388  0.00  0.00    -0.266 OA
ENDBRANCH  23  24
ENDBRANCH  22  23
ENDBRANCH   6  22
BRANCH  18  27
ATOM     27  O           0     135.042 130.246 143.197  0.00  0.00    -0.362 OA
ATOM     28  H           0     134.426 129.772 143.773  0.00  0.00     0.213 HD
ENDBRANCH  18  27
BRANCH  18  29
ATOM     29  O           0     137.222 130.973 143.675  0.00  0.00    -0.362 OA
ATOM     30  H           0     137.300 130.207 143.090  0.00  0.00     0.213 HD
ENDBRANCH  18  29
TORSDOF 5
ENDMDL
MODEL 4
REMARK VINA RESULT:      -7.1      2.761      3.930
REMARK  5 active torsions:
REMARK  status: ('A' for Active; 'I' for Inactive)
REMARK    1  A    between atoms: C_6  and  C_7 
REMARK    2  A    between atoms: C_7  and  O_8 
REMARK    3  A    between atoms: O_8  and  C_9 
REMARK    4  A    between atoms: C_23  and  O_24 
REMARK    5  A    between atoms: C_23  and  O_25 
ROOT
ATOM      1  N           0     138.422 130.530 146.128  0.00  0.00    -0.235 N 
ATOM      2  H           0     137.973 129.880 146.692  0.00  0.00     0.174 HD
ATOM      3  H           0     139.372 130.448 145.956  0.00  0.00     0.174 HD
ATOM      4  C           0     137.744 131.508 145.595  0.00  0.00     0.672 C 
ATOM      5  N           0     136.385 131.663 145.805  0.00  0.00    -0.218 N 
ATOM      6  C           0     135.825 133.009 145.744  0.00  0.00     0.151 C 
ATOM      7  C           0     136.220 133.751 144.481  0.00  0.00     0.180 C 
ATOM      8  N           0     135.411 133.249 143.350  0.00  0.00    -0.216 N 
ATOM      9  C           0     136.234 133.172 142.253  0.00  0.00     0.670 C 
ATOM     10  N           0     135.810 133.123 141.021  0.00  0.00    -0.235 N 
ATOM     11  H           0     134.858 133.141 140.835  0.00  0.00     0.174 HD
ATOM     12  H           0     136.446 133.071 140.292  0.00  0.00     0.174 HD
ATOM     13  C           0     137.655 133.506 144.040  0.00  0.00     0.217 C 
ATOM     14  N           0     137.558 133.153 142.614  0.00  0.00    -0.191 N 
ATOM     15  N           0     138.334 132.452 144.795  0.00  0.00    -0.183 N 
ATOM     16  C           0     139.772 132.667 144.557  0.00  0.00     0.150 C 
ATOM     17  C           0     139.935 134.205 144.556  0.00  0.00     0.093 C 
ATOM     18  C           0     138.530 134.759 144.210  0.00  0.00     0.209 C 
ATOM     19  H           0     135.819 130.895 145.987  0.00  0.00     0.178 HD
ATOM     20  H           0     134.469 133.017 143.378  0.00  0.00     0.178 HD
ATOM     21  H           0     138.303 132.945 142.029  0.00  0.00     0.180 HD
ENDROOT
BRANCH   6  22
ATOM     22  C           0     136.317 133.804 146.955  0.00  0.00     0.206 C 
BRANCH  22  23
ATOM     23  O           0     135.674 133.303 148.156  0.00  0.00    -0.320 OA
BRANCH  23  24
ATOM     24  C           0     136.404 132.696 149.105  0.00  0.00     0.254 C 
ATOM     25  C           0     136.628 133.374 150.432  0.00  0.00     0.126 C 
ATOM     26  O           0     136.881 131.606 148.895  0.00  0.00    -0.266 OA
ENDBRANCH  23  24
ENDBRANCH  22  23
ENDBRANCH   6  22
BRANCH  18  27
ATOM     27  O           0     138.575 135.510 142.996  0.00  0.00    -0.362 OA
ATOM     28  H           0     137.886 136.185 143.059  0.00  0.00     0.213 HD
ENDBRANCH  18  27
BRANCH  18  29
ATOM     29  O           0     138.036 135.568 145.280  0.00  0.00    -0.362 OA
ATOM     30  H           0     138.207 135.082 146.098  0.00  0.00     0.213 HD
ENDBRANCH  18  29
TORSDOF 5
ENDMDL
MODEL 5
REMARK VINA RESULT:      -6.6      9.265     12.449
REMARK  5 active torsions:
REMARK  status: ('A' for Active; 'I' for Inactive)
REMARK    1  A    between atoms: C_6  and  C_7 
REMARK    2  A    between atoms: C_7  and  O_8 
REMARK    3  A    between atoms: O_8  and  C_9 
REMARK    4  A    between atoms: C_23  and  O_24 
REMARK    5  A    between atoms: C_23  and  O_25 
ROOT
ATOM      1  N           0     132.172 137.236 132.380  0.00  0.00    -0.235 N 
ATOM      2  H           0     131.408 137.824 132.278  0.00  0.00     0.174 HD
ATOM      3  H           0     132.903 137.275 131.744  0.00  0.00     0.174 HD
ATOM      4  C           0     132.220 136.397 133.377  0.00  0.00     0.672 C 
ATOM      5  N           0     131.205 136.308 134.314  0.00  0.00    -0.218 N 
ATOM      6  C           0     130.991 135.028 134.981  0.00  0.00     0.151 C 
ATOM      7  C           0     132.264 134.455 135.573  0.00  0.00     0.180 C 
ATOM      8  N           0     132.584 135.174 136.825  0.00  0.00    -0.216 N 
ATOM      9  C           0     133.945 135.355 136.863  0.00  0.00     0.670 C 
ATOM     10  N           0     134.619 135.615 137.949  0.00  0.00    -0.235 N 
ATOM     11  H           0     134.158 135.692 138.800  0.00  0.00     0.174 HD
ATOM     12  H           0     135.580 135.731 137.907  0.00  0.00     0.174 HD
ATOM     13  C           0     133.499 134.662 134.709  0.00  0.00     0.217 C 
ATOM     14  N           0     134.508 135.228 135.618  0.00  0.00    -0.191 N 
ATOM     15  N           0     133.276 135.543 133.561  0.00  0.00    -0.183 N 
ATOM     16  C           0     134.388 135.265 132.636  0.00  0.00     0.150 C 
ATOM     17  C           0     134.601 133.736 132.738  0.00  0.00     0.093 C 
ATOM     18  C           0     134.012 133.339 134.116  0.00  0.00     0.209 C 
ATOM     19  H           0     130.651 137.078 134.522  0.00  0.00     0.178 HD
ATOM     20  H           0     131.947 135.466 137.497  0.00  0.00     0.178 HD
ATOM     21  H           0     135.417 135.468 135.380  0.00  0.00     0.180 HD
ENDROOT
BRANCH   6  22
ATOM     22  C           0     130.428 134.030 133.967  0.00  0.00     0.206 C 
BRANCH  22  23
ATOM     23  O           0     129.170 134.530 133.443  0.00  0.00    -0.320 OA
BRANCH  23  24
ATOM     24  C           0     128.995 134.651 132.118  0.00  0.00     0.254 C 
ATOM     25  C           0     128.059 133.720 131.392  0.00  0.00     0.126 C 
ATOM     26  O           0     129.591 135.506 131.506  0.00  0.00    -0.266 OA
ENDBRANCH  23  24
ENDBRANCH  22  23
ENDBRANCH   6  22
BRANCH  18  27
ATOM     27  O           0     135.027 132.775 134.947  0.00  0.00    -0.362 OA
ATOM     28  H           0     134.692 131.924 135.260  0.00  0.00     0.213 HD
ENDBRANCH  18  27
BRANCH  18  29
ATOM     29  O           0     132.933 132.418 133.949  0.00  0.00    -0.362 OA
ATOM     30  H           0     132.127 132.945 133.860  0.00  0.00     0.213 HD
ENDBRANCH  18  29
TORSDOF 5
ENDMDL
MODEL 6
REMARK VINA RESULT:      -6.6      3.606      4.998
REMARK  5 active torsions:
REMARK  status: ('A' for Active; 'I' for Inactive)
REMARK    1  A    between atoms: C_6  and  C_7 
REMARK    2  A    between atoms: C_7  and  O_8 
REMARK    3  A    between atoms: O_8  and  C_9 
REMARK    4  A    between atoms: C_23  and  O_24 
REMARK    5  A    between atoms: C_23  and  O_25 
ROOT
ATOM      1  N           0     139.128 130.390 146.055  0.00  0.00    -0.235 N 
ATOM      2  H           0     139.293 129.534 146.480  0.00  0.00     0.174 HD
ATOM      3  H           0     139.868 130.903 145.695  0.00  0.00     0.174 HD
ATOM      4  C           0     137.911 130.847 145.962  0.00  0.00     0.672 C 
ATOM      5  N           0     136.822 130.148 146.454  0.00  0.00    -0.218 N 
ATOM      6  C           0     135.653 130.907 146.889  0.00  0.00     0.151 C 
ATOM      7  C           0     135.176 131.897 145.845  0.00  0.00     0.180 C 
ATOM      8  N           0     134.442 131.171 144.786  0.00  0.00    -0.216 N 
ATOM      9  C           0     134.786 131.735 143.582  0.00  0.00     0.670 C 
ATOM     10  N           0     134.087 131.611 142.488  0.00  0.00    -0.235 N 
ATOM     11  H           0     133.266 131.092 142.494  0.00  0.00     0.174 HD
ATOM     12  H           0     134.386 132.036 141.670  0.00  0.00     0.174 HD
ATOM     13  C           0     136.299 132.598 145.095  0.00  0.00     0.217 C 
ATOM     14  N           0     135.957 132.447 143.671  0.00  0.00    -0.191 N 
ATOM     15  N           0     137.627 132.052 145.375  0.00  0.00    -0.183 N 
ATOM     16  C           0     138.575 133.097 144.949  0.00  0.00     0.150 C 
ATOM     17  C           0     137.896 134.424 145.362  0.00  0.00     0.093 C 
ATOM     18  C           0     136.385 134.091 145.456  0.00  0.00     0.209 C 
ATOM     19  H           0     136.835 129.179 146.508  0.00  0.00     0.178 HD
ATOM     20  H           0     133.829 130.431 144.918  0.00  0.00     0.178 HD
ATOM     21  H           0     136.469 132.793 142.924  0.00  0.00     0.180 HD
ENDROOT
BRANCH   6  22
ATOM     22  C           0     136.008 131.671 148.166  0.00  0.00     0.206 C 
BRANCH  22  23
ATOM     23  O           0     134.814 132.300 148.701  0.00  0.00    -0.320 OA
BRANCH  23  24
ATOM     24  C           0     134.081 131.669 149.631  0.00  0.00     0.254 C 
ATOM     25  C           0     134.700 130.581 150.469  0.00  0.00     0.126 C 
ATOM     26  O           0     132.922 131.973 149.795  0.00  0.00    -0.266 OA
ENDBRANCH  23  24
ENDBRANCH  22  23
ENDBRANCH   6  22
BRANCH  18  27
ATOM     27  O           0     135.643 134.878 144.524  0.00  0.00    -0.362 OA
ATOM     28  H           0     135.109 134.264 144.002  0.00  0.00     0.213 HD
ENDBRANCH  18  27
BRANCH  18  29
ATOM     29  O           0     135.909 134.309 146.786  0.00  0.00    -0.362 OA
ATOM     30  H           0     136.603 134.000 147.384  0.00  0.00     0.213 HD
ENDBRANCH  18  29
TORSDOF 5
ENDMDL
MODEL 7
REMARK VINA RESULT:      -6.5      3.075      4.932
REMARK  5 active torsions:
REMARK  status: ('A' for Active; 'I' for Inactive)
REMARK    1  A    between atoms: C_6  and  C_7 
REMARK    2  A    between atoms: C_7  and  O_8 
REMARK    3  A    between atoms: O_8  and  C_9 
REMARK    4  A    between atoms: C_23  and  O_24 
REMARK    5  A    between atoms: C_23  and  O_25 
ROOT
ATOM      1  N           0     137.723 133.900 142.199  0.00  0.00    -0.235 N 
ATOM      2  H           0     138.289 134.195 141.468  0.00  0.00     0.174 HD
ATOM      3  H           0     136.784 133.715 142.041  0.00  0.00     0.174 HD
ATOM      4  C           0     138.226 133.747 143.392  0.00  0.00     0.672 C 
ATOM      5  N           0     139.560 133.992 143.666  0.00  0.00    -0.218 N 
ATOM      6  C           0     139.923 134.412 145.016  0.00  0.00     0.151 C 
ATOM      7  C           0     139.357 133.496 146.085  0.00  0.00     0.180 C 
ATOM      8  N           0     140.161 132.257 146.140  0.00  0.00    -0.216 N 
ATOM      9  C           0     139.295 131.208 146.329  0.00  0.00     0.670 C 
ATOM     10  N           0     139.650 130.038 146.780  0.00  0.00    -0.235 N 
ATOM     11  H           0     140.578 129.865 147.005  0.00  0.00     0.174 HD
ATOM     12  H           0     138.987 129.340 146.892  0.00  0.00     0.174 HD
ATOM     13  C           0     137.947 133.003 145.797  0.00  0.00     0.217 C 
ATOM     14  N           0     138.009 131.545 145.986  0.00  0.00    -0.191 N 
ATOM     15  N           0     137.466 133.338 144.456  0.00  0.00    -0.183 N 
ATOM     16  C           0     136.001 133.198 144.522  0.00  0.00     0.150 C 
ATOM     17  C           0     135.625 133.744 145.920  0.00  0.00     0.093 C 
ATOM     18  C           0     136.917 133.612 146.765  0.00  0.00     0.209 C 
ATOM     19  H           0     140.237 133.887 142.978  0.00  0.00     0.178 HD
ATOM     20  H           0     141.127 132.196 146.057  0.00  0.00     0.178 HD
ATOM     21  H           0     137.268 130.927 145.887  0.00  0.00     0.180 HD
ENDROOT
BRANCH   6  22
ATOM     22  C           0     139.396 135.828 145.252  0.00  0.00     0.206 C 
BRANCH  22  23
ATOM     23  O           0     140.010 136.381 146.445  0.00  0.00    -0.320 OA
BRANCH  23  24
ATOM     24  C           0     140.145 137.710 146.577  0.00  0.00     0.254 C 
ATOM     25  C           0     139.514 138.419 147.748  0.00  0.00     0.126 C 
ATOM     26  O           0     140.771 138.338 145.757  0.00  0.00    -0.266 OA
ENDBRANCH  23  24
ENDBRANCH  22  23
ENDBRANCH   6  22
BRANCH  18  27
ATOM     27  O           0     136.698 132.744 147.878  0.00  0.00    -0.362 OA
ATOM     28  H           0     136.574 133.309 148.652  0.00  0.00     0.213 HD
ENDBRANCH  18  27
BRANCH  18  29
ATOM     29  O           0     137.355 134.897 147.211  0.00  0.00    -0.362 OA
ATOM     30  H           0     136.573 135.465 147.235  0.00  0.00     0.213 HD
ENDBRANCH  18  29
TORSDOF 5
ENDMDL
MODEL 8
REMARK VINA RESULT:      -6.5      2.515      5.431
REMARK  5 active torsions:
REMARK  status: ('A' for Active; 'I' for Inactive)
REMARK    1  A    between atoms: C_6  and  C_7 
REMARK    2  A    between atoms: C_7  and  O_8 
REMARK    3  A    between atoms: O_8  and  C_9 
REMARK    4  A    between atoms: C_23  and  O_24 
REMARK    5  A    between atoms: C_23  and  O_25 
ROOT
ATOM      1  N           0     135.184 130.544 143.266  0.00  0.00    -0.235 N 
ATOM      2  H           0     134.940 130.426 142.334  0.00  0.00     0.174 HD
ATOM      3  H           0     134.882 129.906 143.930  0.00  0.00     0.174 HD
ATOM      4  C           0     135.922 131.557 143.622  0.00  0.00     0.672 C 
ATOM      5  N           0     136.382 132.491 142.710  0.00  0.00    -0.218 N 
ATOM      6  C           0     136.631 133.851 143.179  0.00  0.00     0.151 C 
ATOM      7  C           0     137.508 133.892 144.416  0.00  0.00     0.180 C 
ATOM      8  N           0     138.914 133.657 144.023  0.00  0.00    -0.216 N 
ATOM      9  C           0     139.484 132.855 144.982  0.00  0.00     0.670 C 
ATOM     10  N           0     140.769 132.737 145.168  0.00  0.00    -0.235 N 
ATOM     11  H           0     141.388 133.234 144.610  0.00  0.00     0.174 HD
ATOM     12  H           0     141.106 132.154 145.865  0.00  0.00     0.174 HD
ATOM     13  C           0     137.220 132.785 145.419  0.00  0.00     0.217 C 
ATOM     14  N           0     138.534 132.195 145.720  0.00  0.00    -0.191 N 
ATOM     15  N           0     136.289 131.769 144.926  0.00  0.00    -0.183 N 
ATOM     16  C           0     135.796 131.076 146.129  0.00  0.00     0.150 C 
ATOM     17  C           0     135.636 132.200 147.181  0.00  0.00     0.093 C 
ATOM     18  C           0     136.583 133.331 146.708  0.00  0.00     0.209 C 
ATOM     19  H           0     136.536 132.247 141.783  0.00  0.00     0.178 HD
ATOM     20  H           0     139.354 134.005 143.231  0.00  0.00     0.178 HD
ATOM     21  H           0     138.700 131.465 146.337  0.00  0.00     0.180 HD
ENDROOT
BRANCH   6  22
ATOM     22  C           0     135.292 134.515 143.502  0.00  0.00     0.206 C 
BRANCH  22  23
ATOM     23  O           0     134.630 134.898 142.269  0.00  0.00    -0.320 OA
BRANCH  23  24
ATOM     24  C           0     133.743 134.069 141.697  0.00  0.00     0.254 C 
ATOM     25  C           0     133.310 134.295 140.272  0.00  0.00     0.126 C 
ATOM     26  O           0     133.291 133.141 142.326  0.00  0.00    -0.266 OA
ENDBRANCH  23  24
ENDBRANCH  22  23
ENDBRANCH   6  22
BRANCH  18  27
ATOM     27  O           0     137.585 133.587 147.694  0.00  0.00    -0.362 OA
ATOM     28  H           0     137.154 134.072 148.411  0.00  0.00     0.213 HD
ENDBRANCH  18  27
BRANCH  18  29
ATOM     29  O           0     135.840 134.520 146.431  0.00  0.00    -0.362 OA
ATOM     30  H           0     135.124 134.267 145.831  0.00  0.00     0.213 HD
ENDBRANCH  18  29
TORSDOF 5
ENDMDL
MODEL 9
REMARK VINA RESULT:      -6.3      3.089      5.855
REMARK  5 active torsions:
REMARK  status: ('A' for Active; 'I' for Inactive)
REMARK    1  A    between atoms: C_6  and  C_7 
REMARK    2  A    between atoms: C_7  and  O_8 
REMARK    3  A    between atoms: O_8  and  C_9 
REMARK    4  A    between atoms: C_23  and  O_24 
REMARK    5  A    between atoms: C_23  and  O_25 
ROOT
ATOM      1  N           0     134.059 131.776 148.315  0.00  0.00    -0.235 N 
ATOM      2  H           0     133.270 131.247 148.121  0.00  0.00     0.174 HD
ATOM      3  H           0     134.120 132.266 149.149  0.00  0.00     0.174 HD
ATOM      4  C           0     135.040 131.823 147.458  0.00  0.00     0.672 C 
ATOM      5  N           0     135.002 131.135 146.257  0.00  0.00    -0.218 N 
ATOM      6  C           0     135.751 131.676 145.127  0.00  0.00     0.151 C 
ATOM      7  C           0     137.194 131.986 145.475  0.00  0.00     0.180 C 
ATOM      8  N           0     137.965 130.725 145.519  0.00  0.00    -0.216 N 
ATOM      9  C           0     138.836 130.808 146.578  0.00  0.00     0.670 C 
ATOM     10  N           0     139.901 130.067 146.710  0.00  0.00    -0.235 N 
ATOM     11  H           0     140.118 129.405 146.034  0.00  0.00     0.174 HD
ATOM     12  H           0     140.476 130.177 147.482  0.00  0.00     0.174 HD
ATOM     13  C           0     137.384 132.577 146.864  0.00  0.00     0.217 C 
ATOM     14  N           0     138.449 131.768 147.479  0.00  0.00    -0.191 N 
ATOM     15  N           0     136.173 132.559 147.685  0.00  0.00    -0.183 N 
ATOM     16  C           0     136.415 133.540 148.758  0.00  0.00     0.150 C 
ATOM     17  C           0     137.172 134.694 148.059  0.00  0.00     0.093 C 
ATOM     18  C           0     137.816 134.053 146.805  0.00  0.00     0.209 C 
ATOM     19  H           0     134.491 130.314 146.169  0.00  0.00     0.178 HD
ATOM     20  H           0     137.872 129.974 144.911  0.00  0.00     0.178 HD
ATOM     21  H           0     138.817 131.894 148.367  0.00  0.00     0.180 HD
ENDROOT
BRANCH   6  22
ATOM     22  C           0     135.072 132.962 144.654  0.00  0.00     0.206 C 
BRANCH  22  23
ATOM     23  O           0     134.263 132.681 143.482  0.00  0.00    -0.320 OA
BRANCH  23  24
ATOM     24  C           0     133.933 133.672 142.640  0.00  0.00     0.254 C 
ATOM     25  C           0     133.128 133.373 141.402  0.00  0.00     0.126 C 
ATOM     26  O           0     134.282 134.805 142.874  0.00  0.00    -0.266 OA
ENDBRANCH  23  24
ENDBRANCH  22  23
ENDBRANCH   6  22
BRANCH  18  27
ATOM     27  O           0     139.239 134.163 146.863  0.00  0.00    -0.362 OA
ATOM     28  H           0     139.598 133.320 146.555  0.00  0.00     0.213 HD
ENDBRANCH  18  27
BRANCH  18  29
ATOM     29  O           0     137.315 134.669 145.617  0.00  0.00    -0.362 OA
ATOM     30  H           0     138.084 134.949 145.102  0.00  0.00     0.213 HD
ENDBRANCH  18  29
TORSDOF 5
ENDMDL
