# created with PyMOL 2.3.4
@<TRIPOS>MOLECULE
ligand_out_0001
47 50 1                 
SMALL
USER_CHARGES
@<TRIPOS>ATOM
1	   N	137.643	134.961	142.902	N.3	1	UNK0	-0.235	
2	   N	135.360	135.425	143.230	N.3	1	UNK0	-0.218	
3	   N	133.456	134.375	145.413	N.3	1	UNK0	-0.216	
4	   N	133.723	133.667	147.654	N.3	1	UNK0	-0.235	
5	   N	135.075	132.854	145.891	N.3	1	UNK0	-0.191	
6	   N	136.224	133.342	143.819	N.3	1	UNK0	-0.183	
7	   N	133.673	135.603	138.465	N.pl3	1	UNK0	-0.337	
8	   N	133.095	130.983	132.960	N.pl3	1	UNK0	-0.361	
9	   N	131.303	126.469	131.965	N.3	1	UNK0	-0.159	
10	   N	131.350	126.870	133.138	N.3	1	UNK0	-0.159	
11	   C	136.459	134.589	143.303	C.3	1	UNK0	0.672	
12	   C	134.039	134.820	143.085	C.3	1	UNK0	0.151	
13	   C	133.773	133.741	144.116	C.3	1	UNK0	0.180	
14	   C	134.064	133.635	146.396	C.3	1	UNK0	0.670	
15	   C	134.978	132.865	144.423	C.3	1	UNK0	0.217	
16	   C	137.134	132.181	143.837	C.3	1	UNK0	0.150	
17	   C	136.222	130.975	143.508	C.3	1	UNK0	0.093	
18	   C	134.794	131.430	143.900	C.3	1	UNK0	0.209	
19	   C	133.928	134.205	141.688	C.2	1	UNK0	0.208	
20	   C	133.180	134.867	139.480	C.2	1	UNK0	0.360	
21	   C	133.378	135.231	137.078	C.3	1	UNK0	0.125	
22	   C	134.665	135.279	136.253	C.3	1	UNK0	0.020	
23	   C	134.321	135.175	134.765	C.3	1	UNK0	0.002	
24	   C	134.545	133.739	134.289	C.3	1	UNK0	0.002	
25	   C	133.494	133.380	133.236	C.3	1	UNK0	0.020	
26	   C	132.686	132.172	133.713	C.3	1	UNK0	0.122	
27	   C	133.830	130.026	133.561	C.2	1	UNK0	0.217	
28	   C	134.251	128.803	132.786	C.3	1	UNK0	0.107	
29	   C	133.088	128.325	131.916	C.3	1	UNK0	0.070	
30	   C	132.615	126.954	132.403	C.3	1	UNK0	0.183	
31	   C	133.709	125.931	132.711	C.3	1	UNK0	0.071	
32	   O	133.451	135.208	140.753	O.2	1	UNK0	-0.302	
33	   O	132.490	133.894	139.245	O.co2	1	UNK0	-0.239	
34	   O	134.153	130.148	134.723	O.2	1	UNK0	-0.274	
35	   O	134.265	130.586	144.925	O.2	1	UNK0	-0.362	
36	   O	133.937	131.424	142.757	O.2	1	UNK0	-0.362	
37	   H	137.773	135.850	142.537	 H	1	UNK0	0.174	
38	   H	138.393	134.350	142.971	 H	1	UNK0	0.174	
39	   H	132.998	134.242	147.945	 H	1	UNK0	0.174	
40	   H	134.194	133.117	148.299	 H	1	UNK0	0.174	
41	   H	135.464	136.389	143.275	 H	1	UNK0	0.178	
42	   H	132.917	135.171	145.545	 H	1	UNK0	0.178	
43	   H	135.737	132.375	146.414	 H	1	UNK0	0.180	
44	   H	134.225	136.379	138.652	 H	1	UNK0	0.164	
45	   H	132.836	130.885	132.031	 H	1	UNK0	0.162	
46	   H	133.464	131.015	145.256	 H	1	UNK0	0.213	
47	   H	134.246	132.131	142.173	 H	1	UNK0	0.213	
@<TRIPOS>BOND
1 1 11 1
2 1 37 1
3 1 38 1
4 2 12 1
5 2 41 1
6 3 14 1
7 3 42 1
8 4 39 1
9 4 40 1
10 5 43 1
11 6 16 1
12 7 21 1
13 7 44 1
14 8 27 1
15 8 45 1
16 9 10 1
17 2 11 1
18 6 11 1
19 12 13 1
20 12 19 1
21 3 13 1
22 13 15 1
23 4 14 1
24 5 14 1
25 5 15 1
26 6 15 1
27 15 18 1
28 16 17 1
29 17 18 1
30 18 35 2
31 18 36 2
32 19 32 2
33 7 20 1
34 20 33 2
35 21 22 1
36 22 23 1
37 23 24 1
38 24 25 1
39 25 26 1
40 8 26 1
41 27 28 1
42 27 34 2
43 28 29 1
44 29 30 1
45 9 30 1
46 10 30 1
47 30 31 1
48 20 32 2
49 35 46 1
50 36 47 1
@<TRIPOS>SUBSTRUCTURE
1	UNK0	1	GROUP	1 ****	UNK
