MODEL 1
REMARK VINA RESULT:      -8.6      0.000      0.000
REMARK  15 active torsions:
REMARK  status: ('A' for Active; 'I' for Inactive)
REMARK    1  A    between atoms: C_6  and  C_7 
REMARK    2  A    between atoms: C_7  and  O_8 
REMARK    3  A    between atoms: O_8  and  C_9 
REMARK       I    between atoms: C_9  and  N_10 
REMARK    4  A    between atoms: N_10  and  C_11 
REMARK    5  A    between atoms: C_11  and  C_12 
REMARK    6  A    between atoms: C_12  and  C_13 
REMARK    7  A    between atoms: C_13  and  C_14 
REMARK    8  A    between atoms: C_14  and  C_15 
REMARK    9  A    between atoms: C_15  and  C_16 
REMARK   10  A    between atoms: C_16  and  N_17 
REMARK       I    between atoms: N_17  and  C_18 
REMARK   11  A    between atoms: C_18  and  C_19 
REMARK   12  A    between atoms: C_19  and  C_20 
REMARK   13  A    between atoms: C_20  and  C_21 
REMARK   14  A    between atoms: C_38  and  O_39 
REMARK   15  A    between atoms: C_38  and  O_40 
ROOT
ATOM      1  N           0     137.643 134.961 142.902  0.00  0.00    -0.235 N 
ATOM      2  H           0     137.773 135.850 142.537  0.00  0.00     0.174 HD
ATOM      3  H           0     138.393 134.350 142.971  0.00  0.00     0.174 HD
ATOM      4  C           0     136.459 134.589 143.303  0.00  0.00     0.672 C 
ATOM      5  N           0     135.360 135.425 143.230  0.00  0.00    -0.218 N 
ATOM      6  C           0     134.039 134.820 143.085  0.00  0.00     0.151 C 
ATOM      7  C           0     133.773 133.741 144.116  0.00  0.00     0.180 C 
ATOM      8  N           0     133.456 134.375 145.413  0.00  0.00    -0.216 N 
ATOM      9  C           0     134.064 133.635 146.396  0.00  0.00     0.670 C 
ATOM     10  N           0     133.723 133.667 147.654  0.00  0.00    -0.235 N 
ATOM     11  H           0     132.998 134.242 147.945  0.00  0.00     0.174 HD
ATOM     12  H           0     134.194 133.117 148.299  0.00  0.00     0.174 HD
ATOM     13  C           0     134.978 132.865 144.423  0.00  0.00     0.217 C 
ATOM     14  N           0     135.075 132.854 145.891  0.00  0.00    -0.191 N 
ATOM     15  N           0     136.224 133.342 143.819  0.00  0.00    -0.183 N 
ATOM     16  C           0     137.134 132.181 143.837  0.00  0.00     0.150 C 
ATOM     17  C           0     136.222 130.975 143.508  0.00  0.00     0.093 C 
ATOM     18  C           0     134.794 131.430 143.900  0.00  0.00     0.209 C 
ATOM     19  H           0     135.464 136.389 143.275  0.00  0.00     0.178 HD
ATOM     20  H           0     132.917 135.171 145.545  0.00  0.00     0.178 HD
ATOM     21  H           0     135.737 132.375 146.414  0.00  0.00     0.180 HD
ENDROOT
BRANCH   6  22
ATOM     22  C           0     133.928 134.205 141.688  0.00  0.00     0.208 C 
BRANCH  22  23
ATOM     23  O           0     133.451 135.208 140.753  0.00  0.00    -0.302 OA
BRANCH  23  24
ATOM     24  C           0     133.180 134.867 139.480  0.00  0.00     0.360 C 
ATOM     25  N           0     133.673 135.603 138.465  0.00  0.00    -0.337 N 
ATOM     26  H           0     134.225 136.379 138.652  0.00  0.00     0.164 HD
ATOM     27  O           0     132.490 133.894 139.245  0.00  0.00    -0.239 OA
BRANCH  25  28
ATOM     28  C           0     133.378 135.231 137.078  0.00  0.00     0.125 C 
BRANCH  28  29
ATOM     29  C           0     134.665 135.279 136.253  0.00  0.00     0.020 C 
BRANCH  29  30
ATOM     30  C           0     134.321 135.175 134.765  0.00  0.00     0.002 C 
BRANCH  30  31
ATOM     31  C           0     134.545 133.739 134.289  0.00  0.00     0.002 C 
BRANCH  31  32
ATOM     32  C           0     133.494 133.380 133.236  0.00  0.00     0.020 C 
BRANCH  32  33
ATOM     33  C           0     132.686 132.172 133.713  0.00  0.00     0.122 C 
BRANCH  33  34
ATOM     34  N           0     133.095 130.983 132.960  0.00  0.00    -0.361 N 
ATOM     35  C           0     133.830 130.026 133.561  0.00  0.00     0.217 C 
ATOM     36  O           0     134.153 130.148 134.723  0.00  0.00    -0.274 OA
ATOM     37  H           0     132.836 130.885 132.031  0.00  0.00     0.162 HD
BRANCH  35  38
ATOM     38  C           0     134.251 128.803 132.786  0.00  0.00     0.107 C 
BRANCH  38  39
ATOM     39  C           0     133.088 128.325 131.916  0.00  0.00     0.070 C 
BRANCH  39  40
ATOM     40  C           0     132.615 126.954 132.403  0.00  0.00     0.183 A 
ATOM     41  N           0     131.303 126.469 131.965  0.00  0.00    -0.159 NA
ATOM     42  N           0     131.350 126.870 133.138  0.00  0.00    -0.159 NA
ATOM     43  C           0     133.709 125.931 132.711  0.00  0.00     0.071 C 
ENDBRANCH  39  40
ENDBRANCH  38  39
ENDBRANCH  35  38
ENDBRANCH  33  34
ENDBRANCH  32  33
ENDBRANCH  31  32
ENDBRANCH  30  31
ENDBRANCH  29  30
ENDBRANCH  28  29
ENDBRANCH  25  28
ENDBRANCH  23  24
ENDBRANCH  22  23
ENDBRANCH   6  22
BRANCH  18  44
ATOM     44  O           0     134.265 130.586 144.925  0.00  0.00    -0.362 OA
ATOM     45  H           0     133.464 131.015 145.256  0.00  0.00     0.213 HD
ENDBRANCH  18  44
BRANCH  18  46
ATOM     46  O           0     133.937 131.424 142.757  0.00  0.00    -0.362 OA
ATOM     47  H           0     134.246 132.131 142.173  0.00  0.00     0.213 HD
ENDBRANCH  18  46
TORSDOF 15
ENDMDL
MODEL 2
REMARK VINA RESULT:      -8.5      1.488      1.644
REMARK  15 active torsions:
REMARK  status: ('A' for Active; 'I' for Inactive)
REMARK    1  A    between atoms: C_6  and  C_7 
REMARK    2  A    between atoms: C_7  and  O_8 
REMARK    3  A    between atoms: O_8  and  C_9 
REMARK       I    between atoms: C_9  and  N_10 
REMARK    4  A    between atoms: N_10  and  C_11 
REMARK    5  A    between atoms: C_11  and  C_12 
REMARK    6  A    between atoms: C_12  and  C_13 
REMARK    7  A    between atoms: C_13  and  C_14 
REMARK    8  A    between atoms: C_14  and  C_15 
REMARK    9  A    between atoms: C_15  and  C_16 
REMARK   10  A    between atoms: C_16  and  N_17 
REMARK       I    between atoms: N_17  and  C_18 
REMARK   11  A    between atoms: C_18  and  C_19 
REMARK   12  A    between atoms: C_19  and  C_20 
REMARK   13  A    between atoms: C_20  and  C_21 
REMARK   14  A    between atoms: C_38  and  O_39 
REMARK   15  A    between atoms: C_38  and  O_40 
ROOT
ATOM      1  N           0     138.018 135.043 142.896  0.00  0.00    -0.235 N 
ATOM      2  H           0     138.182 135.864 142.406  0.00  0.00     0.174 HD
ATOM      3  H           0     138.723 134.384 142.988  0.00  0.00     0.174 HD
ATOM      4  C           0     136.851 134.828 143.435  0.00  0.00     0.672 C 
ATOM      5  N           0     135.815 135.740 143.337  0.00  0.00    -0.218 N 
ATOM      6  C           0     134.444 135.237 143.378  0.00  0.00     0.151 C 
ATOM      7  C           0     134.192 134.325 144.563  0.00  0.00     0.180 C 
ATOM      8  N           0     134.040 135.145 145.784  0.00  0.00    -0.216 N 
ATOM      9  C           0     134.676 134.486 146.807  0.00  0.00     0.670 C 
ATOM     10  N           0     134.452 134.709 148.072  0.00  0.00    -0.235 N 
ATOM     11  H           0     133.801 135.376 148.339  0.00  0.00     0.174 HD
ATOM     12  H           0     134.936 134.206 148.746  0.00  0.00     0.174 HD
ATOM     13  C           0     135.350 133.395 144.890  0.00  0.00     0.217 C 
ATOM     14  N           0     135.576 133.564 146.334  0.00  0.00    -0.191 N 
ATOM     15  N           0     136.569 133.682 144.132  0.00  0.00    -0.183 N 
ATOM     16  C           0     137.388 132.459 144.234  0.00  0.00     0.150 C 
ATOM     17  C           0     136.363 131.304 144.143  0.00  0.00     0.093 C 
ATOM     18  C           0     135.013 131.926 144.581  0.00  0.00     0.209 C 
ATOM     19  H           0     135.995 136.688 143.243  0.00  0.00     0.178 HD
ATOM     20  H           0     133.576 135.994 145.850  0.00  0.00     0.178 HD
ATOM     21  H           0     136.245 133.100 146.862  0.00  0.00     0.180 HD
ENDROOT
BRANCH   6  22
ATOM     22  C           0     134.164 134.460 142.090  0.00  0.00     0.208 C 
BRANCH  22  23
ATOM     23  O           0     133.536 135.340 141.121  0.00  0.00    -0.302 OA
BRANCH  23  24
ATOM     24  C           0     133.266 134.892 139.881  0.00  0.00     0.360 C 
ATOM     25  N           0     133.708 135.574 138.806  0.00  0.00    -0.337 N 
ATOM     26  H           0     134.222 136.388 138.927  0.00  0.00     0.164 HD
ATOM     27  O           0     132.623 133.872 139.730  0.00  0.00    -0.239 OA
BRANCH  25  28
ATOM     28  C           0     133.414 135.086 137.456  0.00  0.00     0.125 C 
BRANCH  28  29
ATOM     29  C           0     134.583 135.420 136.528  0.00  0.00     0.020 C 
BRANCH  29  30
ATOM     30  C           0     134.425 134.654 135.213  0.00  0.00     0.002 C 
BRANCH  30  31
ATOM     31  C           0     132.957 134.270 135.020  0.00  0.00     0.002 C 
BRANCH  31  32
ATOM     32  C           0     132.869 132.997 134.176  0.00  0.00     0.020 C 
BRANCH  32  33
ATOM     33  C           0     131.695 132.144 134.661  0.00  0.00     0.122 C 
BRANCH  33  34
ATOM     34  N           0     131.907 130.750 134.263  0.00  0.00    -0.361 N 
ATOM     35  C           0     131.222 130.236 133.221  0.00  0.00     0.217 C 
ATOM     36  O           0     130.432 130.925 132.614  0.00  0.00    -0.274 OA
ATOM     37  H           0     132.540 130.198 134.748  0.00  0.00     0.162 HD
BRANCH  35  38
ATOM     38  C           0     131.440 128.801 132.812  0.00  0.00     0.107 C 
BRANCH  38  39
ATOM     39  C           0     132.587 128.726 131.804  0.00  0.00     0.070 C 
BRANCH  39  40
ATOM     40  C           0     133.827 128.141 132.483  0.00  0.00     0.183 A 
ATOM     41  N           0     134.439 128.885 133.586  0.00  0.00    -0.159 NA
ATOM     42  N           0     135.054 128.940 132.510  0.00  0.00    -0.159 NA
ATOM     43  C           0     133.947 126.615 132.472  0.00  0.00     0.071 C 
ENDBRANCH  39  40
ENDBRANCH  38  39
ENDBRANCH  35  38
ENDBRANCH  33  34
ENDBRANCH  32  33
ENDBRANCH  31  32
ENDBRANCH  30  31
ENDBRANCH  29  30
ENDBRANCH  28  29
ENDBRANCH  25  28
ENDBRANCH  23  24
ENDBRANCH  22  23
ENDBRANCH   6  22
BRANCH  18  44
ATOM     44  O           0     134.516 131.269 145.748  0.00  0.00    -0.362 OA
ATOM     45  H           0     135.112 131.500 146.474  0.00  0.00     0.213 HD
ENDBRANCH  18  44
BRANCH  18  46
ATOM     46  O           0     134.060 131.848 143.520  0.00  0.00    -0.362 OA
ATOM     47  H           0     134.024 132.724 143.111  0.00  0.00     0.213 HD
ENDBRANCH  18  46
TORSDOF 15
ENDMDL
MODEL 3
REMARK VINA RESULT:      -8.3      2.044      2.588
REMARK  15 active torsions:
REMARK  status: ('A' for Active; 'I' for Inactive)
REMARK    1  A    between atoms: C_6  and  C_7 
REMARK    2  A    between atoms: C_7  and  O_8 
REMARK    3  A    between atoms: O_8  and  C_9 
REMARK       I    between atoms: C_9  and  N_10 
REMARK    4  A    between atoms: N_10  and  C_11 
REMARK    5  A    between atoms: C_11  and  C_12 
REMARK    6  A    between atoms: C_12  and  C_13 
REMARK    7  A    between atoms: C_13  and  C_14 
REMARK    8  A    between atoms: C_14  and  C_15 
REMARK    9  A    between atoms: C_15  and  C_16 
REMARK   10  A    between atoms: C_16  and  N_17 
REMARK       I    between atoms: N_17  and  C_18 
REMARK   11  A    between atoms: C_18  and  C_19 
REMARK   12  A    between atoms: C_19  and  C_20 
REMARK   13  A    between atoms: C_20  and  C_21 
REMARK   14  A    between atoms: C_38  and  O_39 
REMARK   15  A    between atoms: C_38  and  O_40 
ROOT
ATOM      1  N           0     138.021 135.061 142.926  0.00  0.00    -0.235 N 
ATOM      2  H           0     138.177 135.877 142.426  0.00  0.00     0.174 HD
ATOM      3  H           0     138.732 134.410 143.027  0.00  0.00     0.174 HD
ATOM      4  C           0     136.855 134.842 143.468  0.00  0.00     0.672 C 
ATOM      5  N           0     135.811 135.742 143.357  0.00  0.00    -0.218 N 
ATOM      6  C           0     134.445 135.227 143.405  0.00  0.00     0.151 C 
ATOM      7  C           0     134.200 134.328 144.602  0.00  0.00     0.180 C 
ATOM      8  N           0     134.040 135.162 145.811  0.00  0.00    -0.216 N 
ATOM      9  C           0     134.682 134.524 146.843  0.00  0.00     0.670 C 
ATOM     10  N           0     134.455 134.760 148.105  0.00  0.00    -0.235 N 
ATOM     11  H           0     133.797 135.425 148.363  0.00  0.00     0.174 HD
ATOM     12  H           0     134.944 134.272 148.786  0.00  0.00     0.174 HD
ATOM     13  C           0     135.367 133.414 144.941  0.00  0.00     0.217 C 
ATOM     14  N           0     135.591 133.604 146.383  0.00  0.00    -0.191 N 
ATOM     15  N           0     136.584 133.703 144.179  0.00  0.00    -0.183 N 
ATOM     16  C           0     137.414 132.489 144.298  0.00  0.00     0.150 C 
ATOM     17  C           0     136.401 131.323 144.222  0.00  0.00     0.093 C 
ATOM     18  C           0     135.045 131.938 144.651  0.00  0.00     0.209 C 
ATOM     19  H           0     135.981 136.691 143.251  0.00  0.00     0.178 HD
ATOM     20  H           0     133.568 136.008 145.866  0.00  0.00     0.178 HD
ATOM     21  H           0     136.264 133.154 146.918  0.00  0.00     0.180 HD
ENDROOT
BRANCH   6  22
ATOM     22  C           0     134.173 134.430 142.127  0.00  0.00     0.208 C 
BRANCH  22  23
ATOM     23  O           0     133.427 135.253 141.193  0.00  0.00    -0.302 OA
BRANCH  23  24
ATOM     24  C           0     133.267 134.851 139.918  0.00  0.00     0.360 C 
ATOM     25  N           0     133.867 135.525 138.918  0.00  0.00    -0.337 N 
ATOM     26  H           0     134.414 136.301 139.116  0.00  0.00     0.164 HD
ATOM     27  O           0     132.582 133.878 139.669  0.00  0.00    -0.239 OA
BRANCH  25  28
ATOM     28  C           0     133.694 135.086 137.531  0.00  0.00     0.125 C 
BRANCH  28  29
ATOM     29  C           0     134.918 135.495 136.710  0.00  0.00     0.020 C 
BRANCH  29  30
ATOM     30  C           0     134.682 135.153 135.237  0.00  0.00     0.002 C 
BRANCH  30  31
ATOM     31  C           0     133.183 134.976 134.989  0.00  0.00     0.002 C 
BRANCH  31  32
ATOM     32  C           0     132.685 136.089 134.063  0.00  0.00     0.020 C 
BRANCH  32  33
ATOM     33  C           0     131.633 135.523 133.107  0.00  0.00     0.122 C 
BRANCH  33  34
ATOM     34  N           0     131.729 134.061 133.085  0.00  0.00    -0.361 N 
ATOM     35  C           0     130.608 133.313 133.094  0.00  0.00     0.217 C 
ATOM     36  O           0     129.521 133.848 133.121  0.00  0.00    -0.274 OA
ATOM     37  H           0     132.599 133.633 133.063  0.00  0.00     0.162 HD
BRANCH  35  38
ATOM     38  C           0     130.707 131.809 133.072  0.00  0.00     0.107 C 
BRANCH  38  39
ATOM     39  C           0     131.454 131.328 134.317  0.00  0.00     0.070 C 
BRANCH  39  40
ATOM     40  C           0     132.785 130.698 133.904  0.00  0.00     0.183 A 
ATOM     41  N           0     133.751 130.353 134.949  0.00  0.00    -0.159 NA
ATOM     42  N           0     134.028 131.368 134.294  0.00  0.00    -0.159 NA
ATOM     43  C           0     132.771 129.873 132.615  0.00  0.00     0.071 C 
ENDBRANCH  39  40
ENDBRANCH  38  39
ENDBRANCH  35  38
ENDBRANCH  33  34
ENDBRANCH  32  33
ENDBRANCH  31  32
ENDBRANCH  30  31
ENDBRANCH  29  30
ENDBRANCH  28  29
ENDBRANCH  25  28
ENDBRANCH  23  24
ENDBRANCH  22  23
ENDBRANCH   6  22
BRANCH  18  44
ATOM     44  O           0     134.554 131.291 145.827  0.00  0.00    -0.362 OA
ATOM     45  H           0     135.315 130.878 146.257  0.00  0.00     0.213 HD
ENDBRANCH  18  44
BRANCH  18  46
ATOM     46  O           0     134.093 131.836 143.590  0.00  0.00    -0.362 OA
ATOM     47  H           0     134.073 132.698 143.150  0.00  0.00     0.213 HD
ENDBRANCH  18  46
TORSDOF 15
ENDMDL
MODEL 4
REMARK VINA RESULT:      -8.1      1.976      2.542
REMARK  15 active torsions:
REMARK  status: ('A' for Active; 'I' for Inactive)
REMARK    1  A    between atoms: C_6  and  C_7 
REMARK    2  A    between atoms: C_7  and  O_8 
REMARK    3  A    between atoms: O_8  and  C_9 
REMARK       I    between atoms: C_9  and  N_10 
REMARK    4  A    between atoms: N_10  and  C_11 
REMARK    5  A    between atoms: C_11  and  C_12 
REMARK    6  A    between atoms: C_12  and  C_13 
REMARK    7  A    between atoms: C_13  and  C_14 
REMARK    8  A    between atoms: C_14  and  C_15 
REMARK    9  A    between atoms: C_15  and  C_16 
REMARK   10  A    between atoms: C_16  and  N_17 
REMARK       I    between atoms: N_17  and  C_18 
REMARK   11  A    between atoms: C_18  and  C_19 
REMARK   12  A    between atoms: C_19  and  C_20 
REMARK   13  A    between atoms: C_20  and  C_21 
REMARK   14  A    between atoms: C_38  and  O_39 
REMARK   15  A    between atoms: C_38  and  O_40 
ROOT
ATOM      1  N           0     135.413 136.886 143.293  0.00  0.00    -0.235 N 
ATOM      2  H           0     134.690 137.513 143.132  0.00  0.00     0.174 HD
ATOM      3  H           0     136.329 137.199 143.326  0.00  0.00     0.174 HD
ATOM      4  C           0     135.149 135.621 143.472  0.00  0.00     0.672 C 
ATOM      5  N           0     133.858 135.127 143.441  0.00  0.00    -0.218 N 
ATOM      6  C           0     133.657 133.741 143.026  0.00  0.00     0.151 C 
ATOM      7  C           0     134.543 132.770 143.783  0.00  0.00     0.180 C 
ATOM      8  N           0     133.985 132.555 145.134  0.00  0.00    -0.216 N 
ATOM      9  C           0     135.038 132.499 146.013  0.00  0.00     0.670 C 
ATOM     10  N           0     134.972 131.973 147.205  0.00  0.00    -0.235 N 
ATOM     11  H           0     134.138 131.589 147.519  0.00  0.00     0.174 HD
ATOM     12  H           0     135.755 131.965 147.776  0.00  0.00     0.174 HD
ATOM     13  C           0     135.949 133.286 144.045  0.00  0.00     0.217 C 
ATOM     14  N           0     136.172 133.065 145.483  0.00  0.00    -0.191 N 
ATOM     15  N           0     136.134 134.696 143.698  0.00  0.00    -0.183 N 
ATOM     16  C           0     137.594 134.881 143.588  0.00  0.00     0.150 C 
ATOM     17  C           0     138.095 133.579 142.921  0.00  0.00     0.093 C 
ATOM     18  C           0     137.004 132.522 143.228  0.00  0.00     0.209 C 
ATOM     19  H           0     133.105 135.685 143.690  0.00  0.00     0.178 HD
ATOM     20  H           0     133.045 132.471 145.360  0.00  0.00     0.178 HD
ATOM     21  H           0     136.982 133.278 145.972  0.00  0.00     0.180 HD
ENDROOT
BRANCH   6  22
ATOM     22  C           0     133.963 133.624 141.531  0.00  0.00     0.208 C 
BRANCH  22  23
ATOM     23  O           0     133.365 134.742 140.826  0.00  0.00    -0.302 OA
BRANCH  23  24
ATOM     24  C           0     133.132 134.657 139.503  0.00  0.00     0.360 C 
ATOM     25  N           0     133.779 135.476 138.650  0.00  0.00    -0.337 N 
ATOM     26  H           0     134.414 136.126 138.990  0.00  0.00     0.164 HD
ATOM     27  O           0     132.337 133.843 139.077  0.00  0.00    -0.239 OA
BRANCH  25  28
ATOM     28  C           0     133.526 135.383 137.210  0.00  0.00     0.125 C 
BRANCH  28  29
ATOM     29  C           0     134.858 135.359 136.458  0.00  0.00     0.020 C 
BRANCH  29  30
ATOM     30  C           0     134.665 134.680 135.100  0.00  0.00     0.002 C 
BRANCH  30  31
ATOM     31  C           0     133.295 135.056 134.533  0.00  0.00     0.002 C 
BRANCH  31  32
ATOM     32  C           0     133.479 135.822 133.221  0.00  0.00     0.020 C 
BRANCH  32  33
ATOM     33  C           0     132.574 135.217 132.146  0.00  0.00     0.122 C 
BRANCH  33  34
ATOM     34  N           0     133.042 133.868 131.816  0.00  0.00    -0.361 N 
ATOM     35  C           0     132.232 132.808 132.010  0.00  0.00     0.217 C 
ATOM     36  O           0     131.117 132.969 132.457  0.00  0.00    -0.274 OA
ATOM     37  H           0     133.934 133.739 131.458  0.00  0.00     0.162 HD
BRANCH  35  38
ATOM     38  C           0     132.714 131.420 131.672  0.00  0.00     0.107 C 
BRANCH  38  39
ATOM     39  C           0     134.079 131.182 132.320  0.00  0.00     0.070 C 
BRANCH  39  40
ATOM     40  C           0     133.952 130.101 133.394  0.00  0.00     0.183 A 
ATOM     41  N           0     133.075 130.352 134.541  0.00  0.00    -0.159 NA
ATOM     42  N           0     134.289 130.446 134.778  0.00  0.00    -0.159 NA
ATOM     43  C           0     134.157 128.658 132.930  0.00  0.00     0.071 C 
ENDBRANCH  39  40
ENDBRANCH  38  39
ENDBRANCH  35  38
ENDBRANCH  33  34
ENDBRANCH  32  33
ENDBRANCH  31  32
ENDBRANCH  30  31
ENDBRANCH  29  30
ENDBRANCH  28  29
ENDBRANCH  25  28
ENDBRANCH  23  24
ENDBRANCH  22  23
ENDBRANCH   6  22
BRANCH  18  44
ATOM     44  O           0     137.552 131.448 143.995  0.00  0.00    -0.362 OA
ATOM     45  H           0     137.911 130.808 143.364  0.00  0.00     0.213 HD
ENDBRANCH  18  44
BRANCH  18  46
ATOM     46  O           0     136.432 132.029 142.016  0.00  0.00    -0.362 OA
ATOM     47  H           0     135.473 132.029 142.139  0.00  0.00     0.213 HD
ENDBRANCH  18  46
TORSDOF 15
ENDMDL
MODEL 5
REMARK VINA RESULT:      -8.0      1.490      1.876
REMARK  15 active torsions:
REMARK  status: ('A' for Active; 'I' for Inactive)
REMARK    1  A    between atoms: C_6  and  C_7 
REMARK    2  A    between atoms: C_7  and  O_8 
REMARK    3  A    between atoms: O_8  and  C_9 
REMARK       I    between atoms: C_9  and  N_10 
REMARK    4  A    between atoms: N_10  and  C_11 
REMARK    5  A    between atoms: C_11  and  C_12 
REMARK    6  A    between atoms: C_12  and  C_13 
REMARK    7  A    between atoms: C_13  and  C_14 
REMARK    8  A    between atoms: C_14  and  C_15 
REMARK    9  A    between atoms: C_15  and  C_16 
REMARK   10  A    between atoms: C_16  and  N_17 
REMARK       I    between atoms: N_17  and  C_18 
REMARK   11  A    between atoms: C_18  and  C_19 
REMARK   12  A    between atoms: C_19  and  C_20 
REMARK   13  A    between atoms: C_20  and  C_21 
REMARK   14  A    between atoms: C_38  and  O_39 
REMARK   15  A    between atoms: C_38  and  O_40 
ROOT
ATOM      1  N           0     135.497 136.653 143.248  0.00  0.00    -0.235 N 
ATOM      2  H           0     134.782 137.284 143.071  0.00  0.00     0.174 HD
ATOM      3  H           0     136.422 136.934 143.173  0.00  0.00     0.174 HD
ATOM      4  C           0     135.214 135.427 143.591  0.00  0.00     0.672 C 
ATOM      5  N           0     133.911 134.981 143.717  0.00  0.00    -0.218 N 
ATOM      6  C           0     133.639 133.565 143.481  0.00  0.00     0.151 C 
ATOM      7  C           0     134.555 132.654 144.275  0.00  0.00     0.180 C 
ATOM      8  N           0     134.103 132.614 145.681  0.00  0.00    -0.216 N 
ATOM      9  C           0     135.222 132.619 146.477  0.00  0.00     0.670 C 
ATOM     10  N           0     135.237 132.233 147.722  0.00  0.00    -0.235 N 
ATOM     11  H           0     134.420 131.918 148.142  0.00  0.00     0.174 HD
ATOM     12  H           0     136.063 132.261 148.229  0.00  0.00     0.174 HD
ATOM     13  C           0     135.992 133.144 144.367  0.00  0.00     0.217 C 
ATOM     14  N           0     136.324 133.078 145.799  0.00  0.00    -0.191 N 
ATOM     15  N           0     136.188 134.498 143.846  0.00  0.00    -0.183 N 
ATOM     16  C           0     137.638 134.615 143.603  0.00  0.00     0.150 C 
ATOM     17  C           0     138.048 133.228 143.055  0.00  0.00     0.093 C 
ATOM     18  C           0     136.956 132.254 143.564  0.00  0.00     0.209 C 
ATOM     19  H           0     133.197 135.591 143.957  0.00  0.00     0.178 HD
ATOM     20  H           0     133.182 132.590 145.987  0.00  0.00     0.178 HD
ATOM     21  H           0     137.176 133.315 146.196  0.00  0.00     0.180 HD
ENDROOT
BRANCH   6  22
ATOM     22  C           0     133.820 133.269 141.991  0.00  0.00     0.208 C 
BRANCH  22  23
ATOM     23  O           0     132.589 133.572 141.284  0.00  0.00    -0.302 OA
BRANCH  23  24
ATOM     24  C           0     132.627 133.923 139.985  0.00  0.00     0.360 C 
ATOM     25  N           0     133.458 134.902 139.575  0.00  0.00    -0.337 N 
ATOM     26  H           0     134.029 135.353 140.216  0.00  0.00     0.164 HD
ATOM     27  O           0     131.912 133.358 139.181  0.00  0.00    -0.239 OA
BRANCH  25  28
ATOM     28  C           0     133.499 135.283 138.161  0.00  0.00     0.125 C 
BRANCH  28  29
ATOM     29  C           0     134.926 135.124 137.631  0.00  0.00     0.020 C 
BRANCH  29  30
ATOM     30  C           0     134.931 135.317 136.113  0.00  0.00     0.002 C 
BRANCH  30  31
ATOM     31  C           0     133.543 134.995 135.554  0.00  0.00     0.002 C 
BRANCH  31  32
ATOM     32  C           0     133.689 134.175 134.270  0.00  0.00     0.020 C 
BRANCH  32  33
ATOM     33  C           0     132.532 133.180 134.167  0.00  0.00     0.122 C 
BRANCH  33  34
ATOM     34  N           0     132.929 132.056 133.315  0.00  0.00    -0.361 N 
ATOM     35  C           0     133.064 130.824 133.845  0.00  0.00     0.217 C 
ATOM     36  O           0     132.857 130.645 135.026  0.00  0.00    -0.274 OA
ATOM     37  H           0     133.095 132.198 132.370  0.00  0.00     0.162 HD
BRANCH  35  38
ATOM     38  C           0     133.473 129.667 132.969  0.00  0.00     0.107 C 
BRANCH  38  39
ATOM     39  C           0     132.385 129.405 131.928  0.00  0.00     0.070 C 
BRANCH  39  40
ATOM     40  C           0     131.388 128.382 132.476  0.00  0.00     0.183 A 
ATOM     41  N           0     131.904 127.240 133.235  0.00  0.00    -0.159 NA
ATOM     42  N           0     131.536 126.979 132.080  0.00  0.00    -0.159 NA
ATOM     43  C           0     129.989 128.907 132.802  0.00  0.00     0.071 C 
ENDBRANCH  39  40
ENDBRANCH  38  39
ENDBRANCH  35  38
ENDBRANCH  33  34
ENDBRANCH  32  33
ENDBRANCH  31  32
ENDBRANCH  30  31
ENDBRANCH  29  30
ENDBRANCH  28  29
ENDBRANCH  25  28
ENDBRANCH  23  24
ENDBRANCH  22  23
ENDBRANCH   6  22
BRANCH  18  44
ATOM     44  O           0     137.534 131.254 144.406  0.00  0.00    -0.362 OA
ATOM     45  H           0     137.861 130.553 143.824  0.00  0.00     0.213 HD
ENDBRANCH  18  44
BRANCH  18  46
ATOM     46  O           0     136.275 131.649 142.465  0.00  0.00    -0.362 OA
ATOM     47  H           0     136.796 130.876 142.204  0.00  0.00     0.213 HD
ENDBRANCH  18  46
TORSDOF 15
ENDMDL
MODEL 6
REMARK VINA RESULT:      -7.9      2.641      3.793
REMARK  15 active torsions:
REMARK  status: ('A' for Active; 'I' for Inactive)
REMARK    1  A    between atoms: C_6  and  C_7 
REMARK    2  A    between atoms: C_7  and  O_8 
REMARK    3  A    between atoms: O_8  and  C_9 
REMARK       I    between atoms: C_9  and  N_10 
REMARK    4  A    between atoms: N_10  and  C_11 
REMARK    5  A    between atoms: C_11  and  C_12 
REMARK    6  A    between atoms: C_12  and  C_13 
REMARK    7  A    between atoms: C_13  and  C_14 
REMARK    8  A    between atoms: C_14  and  C_15 
REMARK    9  A    between atoms: C_15  and  C_16 
REMARK   10  A    between atoms: C_16  and  N_17 
REMARK       I    between atoms: N_17  and  C_18 
REMARK   11  A    between atoms: C_18  and  C_19 
REMARK   12  A    between atoms: C_19  and  C_20 
REMARK   13  A    between atoms: C_20  and  C_21 
REMARK   14  A    between atoms: C_38  and  O_39 
REMARK   15  A    between atoms: C_38  and  O_40 
ROOT
ATOM      1  N           0     134.710 130.534 145.386  0.00  0.00    -0.235 N 
ATOM      2  H           0     134.741 129.594 145.149  0.00  0.00     0.174 HD
ATOM      3  H           0     134.540 130.799 146.302  0.00  0.00     0.174 HD
ATOM      4  C           0     134.902 131.442 144.469  0.00  0.00     0.672 C 
ATOM      5  N           0     135.152 131.115 143.149  0.00  0.00    -0.218 N 
ATOM      6  C           0     134.748 132.061 142.113  0.00  0.00     0.151 C 
ATOM      7  C           0     135.246 133.468 142.379  0.00  0.00     0.180 C 
ATOM      8  N           0     136.682 133.548 142.038  0.00  0.00    -0.216 N 
ATOM      9  C           0     137.292 134.326 142.991  0.00  0.00     0.670 C 
ATOM     10  N           0     138.448 134.908 142.832  0.00  0.00    -0.235 N 
ATOM     11  H           0     138.933 134.803 141.998  0.00  0.00     0.174 HD
ATOM     12  H           0     138.823 135.446 143.547  0.00  0.00     0.174 HD
ATOM     13  C           0     135.195 133.880 143.842  0.00  0.00     0.217 C 
ATOM     14  N           0     136.534 134.417 144.132  0.00  0.00    -0.191 N 
ATOM     15  N           0     134.862 132.783 144.752  0.00  0.00    -0.183 N 
ATOM     16  C           0     134.424 133.433 146.002  0.00  0.00     0.150 C 
ATOM     17  C           0     133.616 134.664 145.530  0.00  0.00     0.093 C 
ATOM     18  C           0     134.130 134.960 144.098  0.00  0.00     0.209 C 
ATOM     19  H           0     135.587 130.279 142.918  0.00  0.00     0.178 HD
ATOM     20  H           0     137.116 133.126 141.280  0.00  0.00     0.178 HD
ATOM     21  H           0     136.830 134.776 144.983  0.00  0.00     0.180 HD
ENDROOT
BRANCH   6  22
ATOM     22  C           0     133.220 132.086 142.036  0.00  0.00     0.208 C 
BRANCH  22  23
ATOM     23  O           0     132.800 133.083 141.069  0.00  0.00    -0.302 OA
BRANCH  23  24
ATOM     24  C           0     131.613 132.959 140.445  0.00  0.00     0.360 C 
ATOM     25  N           0     131.569 132.702 139.123  0.00  0.00    -0.337 N 
ATOM     26  H           0     132.394 132.606 138.620  0.00  0.00     0.164 HD
ATOM     27  O           0     130.580 133.078 141.075  0.00  0.00    -0.239 OA
BRANCH  25  28
ATOM     28  C           0     130.278 132.567 138.445  0.00  0.00     0.125 C 
BRANCH  28  29
ATOM     29  C           0     130.482 131.883 137.092  0.00  0.00     0.020 C 
BRANCH  29  30
ATOM     30  C           0     130.876 132.928 136.047  0.00  0.00     0.002 C 
BRANCH  30  31
ATOM     31  C           0     131.437 132.225 134.809  0.00  0.00     0.002 C 
BRANCH  31  32
ATOM     32  C           0     130.520 132.492 133.612  0.00  0.00     0.020 C 
BRANCH  32  33
ATOM     33  C           0     130.978 131.648 132.421  0.00  0.00     0.122 C 
BRANCH  33  34
ATOM     34  N           0     130.837 130.227 132.748  0.00  0.00    -0.361 N 
ATOM     35  C           0     129.835 129.507 132.205  0.00  0.00     0.217 C 
ATOM     36  O           0     129.049 130.036 131.448  0.00  0.00    -0.274 OA
ATOM     37  H           0     131.466 129.804 133.353  0.00  0.00     0.162 HD
BRANCH  35  38
ATOM     38  C           0     129.689 128.045 132.542  0.00  0.00     0.107 C 
BRANCH  38  39
ATOM     39  C           0     130.581 127.217 131.615  0.00  0.00     0.070 C 
BRANCH  39  40
ATOM     40  C           0     131.804 126.724 132.390  0.00  0.00     0.183 A 
ATOM     41  N           0     132.687 127.716 133.011  0.00  0.00    -0.159 NA
ATOM     42  N           0     133.130 127.193 131.977  0.00  0.00    -0.159 NA
ATOM     43  C           0     131.685 125.343 133.036  0.00  0.00     0.071 C 
ENDBRANCH  39  40
ENDBRANCH  38  39
ENDBRANCH  35  38
ENDBRANCH  33  34
ENDBRANCH  32  33
ENDBRANCH  31  32
ENDBRANCH  30  31
ENDBRANCH  29  30
ENDBRANCH  28  29
ENDBRANCH  25  28
ENDBRANCH  23  24
ENDBRANCH  22  23
ENDBRANCH   6  22
BRANCH  18  44
ATOM     44  O           0     134.713 136.264 144.038  0.00  0.00    -0.362 OA
ATOM     45  H           0     135.642 136.167 144.289  0.00  0.00     0.213 HD
ENDBRANCH  18  44
BRANCH  18  46
ATOM     46  O           0     133.067 134.844 143.152  0.00  0.00    -0.362 OA
ATOM     47  H           0     133.433 135.083 142.289  0.00  0.00     0.213 HD
ENDBRANCH  18  46
TORSDOF 15
ENDMDL
MODEL 7
REMARK VINA RESULT:      -7.8      2.677      3.138
REMARK  15 active torsions:
REMARK  status: ('A' for Active; 'I' for Inactive)
REMARK    1  A    between atoms: C_6  and  C_7 
REMARK    2  A    between atoms: C_7  and  O_8 
REMARK    3  A    between atoms: O_8  and  C_9 
REMARK       I    between atoms: C_9  and  N_10 
REMARK    4  A    between atoms: N_10  and  C_11 
REMARK    5  A    between atoms: C_11  and  C_12 
REMARK    6  A    between atoms: C_12  and  C_13 
REMARK    7  A    between atoms: C_13  and  C_14 
REMARK    8  A    between atoms: C_14  and  C_15 
REMARK    9  A    between atoms: C_15  and  C_16 
REMARK   10  A    between atoms: C_16  and  N_17 
REMARK       I    between atoms: N_17  and  C_18 
REMARK   11  A    between atoms: C_18  and  C_19 
REMARK   12  A    between atoms: C_19  and  C_20 
REMARK   13  A    between atoms: C_20  and  C_21 
REMARK   14  A    between atoms: C_38  and  O_39 
REMARK   15  A    between atoms: C_38  and  O_40 
ROOT
ATOM      1  N           0     135.121 136.933 143.117  0.00  0.00    -0.235 N 
ATOM      2  H           0     134.364 137.495 142.890  0.00  0.00     0.174 HD
ATOM      3  H           0     136.000 137.326 143.232  0.00  0.00     0.174 HD
ATOM      4  C           0     134.955 135.649 143.275  0.00  0.00     0.672 C 
ATOM      5  N           0     133.721 135.043 143.129  0.00  0.00    -0.218 N 
ATOM      6  C           0     133.682 133.647 142.701  0.00  0.00     0.151 C 
ATOM      7  C           0     134.578 132.754 143.537  0.00  0.00     0.180 C 
ATOM      8  N           0     133.922 132.484 144.834  0.00  0.00    -0.216 N 
ATOM      9  C           0     134.893 132.516 145.804  0.00  0.00     0.670 C 
ATOM     10  N           0     134.766 131.980 146.986  0.00  0.00    -0.235 N 
ATOM     11  H           0     133.944 131.522 147.225  0.00  0.00     0.174 HD
ATOM     12  H           0     135.492 132.038 147.626  0.00  0.00     0.174 HD
ATOM     13  C           0     135.904 133.391 143.925  0.00  0.00     0.217 C 
ATOM     14  N           0     136.015 133.182 145.377  0.00  0.00    -0.191 N 
ATOM     15  N           0     135.995 134.814 143.591  0.00  0.00    -0.183 N 
ATOM     16  C           0     137.436 135.127 143.613  0.00  0.00     0.150 C 
ATOM     17  C           0     138.109 133.878 142.998  0.00  0.00     0.093 C 
ATOM     18  C           0     137.092 132.727 143.208  0.00  0.00     0.209 C 
ATOM     19  H           0     132.902 135.531 143.307  0.00  0.00     0.178 HD
ATOM     20  H           0     132.977 132.315 144.974  0.00  0.00     0.178 HD
ATOM     21  H           0     136.755 133.464 145.937  0.00  0.00     0.180 HD
ENDROOT
BRANCH   6  22
ATOM     22  C           0     134.131 133.565 141.240  0.00  0.00     0.208 C 
BRANCH  22  23
ATOM     23  O           0     133.331 134.472 140.437  0.00  0.00    -0.302 OA
BRANCH  23  24
ATOM     24  C           0     133.628 134.661 139.138  0.00  0.00     0.360 C 
ATOM     25  N           0     132.722 135.225 138.314  0.00  0.00    -0.337 N 
ATOM     26  H           0     131.856 135.495 138.658  0.00  0.00     0.164 HD
ATOM     27  O           0     134.713 134.322 138.707  0.00  0.00    -0.239 OA
BRANCH  25  28
ATOM     28  C           0     133.046 135.430 136.900  0.00  0.00     0.125 C 
BRANCH  28  29
ATOM     29  C           0     131.759 135.697 136.117  0.00  0.00     0.020 C 
BRANCH  29  30
ATOM     30  C           0     131.356 134.433 135.353  0.00  0.00     0.002 C 
BRANCH  30  31
ATOM     31  C           0     131.162 134.772 133.874  0.00  0.00     0.002 C 
BRANCH  31  32
ATOM     32  C           0     129.700 134.539 133.486  0.00  0.00     0.020 C 
BRANCH  32  33
ATOM     33  C           0     129.609 134.264 131.984  0.00  0.00     0.122 C 
BRANCH  33  34
ATOM     34  N           0     129.812 132.834 131.736  0.00  0.00    -0.361 N 
ATOM     35  C           0     128.750 132.028 131.535  0.00  0.00     0.217 C 
ATOM     36  O           0     127.628 132.485 131.559  0.00  0.00    -0.274 OA
ATOM     37  H           0     130.710 132.468 131.717  0.00  0.00     0.162 HD
BRANCH  35  38
ATOM     38  C           0     128.959 130.557 131.282  0.00  0.00     0.107 C 
BRANCH  38  39
ATOM     39  C           0     129.139 129.830 132.615  0.00  0.00     0.070 C 
BRANCH  39  40
ATOM     40  C           0     130.548 129.238 132.689  0.00  0.00     0.183 A 
ATOM     41  N           0     130.913 128.179 131.744  0.00  0.00    -0.159 NA
ATOM     42  N           0     130.692 127.796 132.903  0.00  0.00    -0.159 NA
ATOM     43  C           0     131.646 130.168 133.208  0.00  0.00     0.071 C 
ENDBRANCH  39  40
ENDBRANCH  38  39
ENDBRANCH  35  38
ENDBRANCH  33  34
ENDBRANCH  32  33
ENDBRANCH  31  32
ENDBRANCH  30  31
ENDBRANCH  29  30
ENDBRANCH  28  29
ENDBRANCH  25  28
ENDBRANCH  23  24
ENDBRANCH  22  23
ENDBRANCH   6  22
BRANCH  18  44
ATOM     44  O           0     137.662 131.701 144.024  0.00  0.00    -0.362 OA
ATOM     45  H           0     138.034 131.040 143.423  0.00  0.00     0.213 HD
ENDBRANCH  18  44
BRANCH  18  46
ATOM     46  O           0     136.678 132.192 141.950  0.00  0.00    -0.362 OA
ATOM     47  H           0     136.393 131.282 142.113  0.00  0.00     0.213 HD
ENDBRANCH  18  46
TORSDOF 15
ENDMDL
MODEL 8
REMARK VINA RESULT:      -7.7      3.036     12.033
REMARK  15 active torsions:
REMARK  status: ('A' for Active; 'I' for Inactive)
REMARK    1  A    between atoms: C_6  and  C_7 
REMARK    2  A    between atoms: C_7  and  O_8 
REMARK    3  A    between atoms: O_8  and  C_9 
REMARK       I    between atoms: C_9  and  N_10 
REMARK    4  A    between atoms: N_10  and  C_11 
REMARK    5  A    between atoms: C_11  and  C_12 
REMARK    6  A    between atoms: C_12  and  C_13 
REMARK    7  A    between atoms: C_13  and  C_14 
REMARK    8  A    between atoms: C_14  and  C_15 
REMARK    9  A    between atoms: C_15  and  C_16 
REMARK   10  A    between atoms: C_16  and  N_17 
REMARK       I    between atoms: N_17  and  C_18 
REMARK   11  A    between atoms: C_18  and  C_19 
REMARK   12  A    between atoms: C_19  and  C_20 
REMARK   13  A    between atoms: C_20  and  C_21 
REMARK   14  A    between atoms: C_38  and  O_39 
REMARK   15  A    between atoms: C_38  and  O_40 
ROOT
ATOM      1  N           0     133.820 134.143 132.253  0.00  0.00    -0.235 N 
ATOM      2  H           0     134.687 134.219 132.679  0.00  0.00     0.174 HD
ATOM      3  H           0     133.709 134.404 131.326  0.00  0.00     0.174 HD
ATOM      4  C           0     132.801 133.684 132.927  0.00  0.00     0.672 C 
ATOM      5  N           0     132.909 133.294 134.249  0.00  0.00    -0.218 N 
ATOM      6  C           0     131.726 133.395 135.099  0.00  0.00     0.151 C 
ATOM      7  C           0     130.506 132.736 134.485  0.00  0.00     0.180 C 
ATOM      8  N           0     130.618 131.270 134.636  0.00  0.00    -0.216 N 
ATOM      9  C           0     130.157 130.698 133.477  0.00  0.00     0.670 C 
ATOM     10  N           0     129.769 129.457 133.376  0.00  0.00    -0.235 N 
ATOM     11  H           0     129.797 128.876 134.153  0.00  0.00     0.174 HD
ATOM     12  H           0     129.453 129.114 132.525  0.00  0.00     0.174 HD
ATOM     13  C           0     130.380 132.940 132.983  0.00  0.00     0.217 C 
ATOM     14  N           0     130.154 131.593 132.436  0.00  0.00    -0.191 N 
ATOM     15  N           0     131.555 133.564 132.371  0.00  0.00    -0.183 N 
ATOM     16  C           0     131.089 134.077 131.070  0.00  0.00     0.150 C 
ATOM     17  C           0     129.666 134.614 131.356  0.00  0.00     0.093 C 
ATOM     18  C           0     129.197 133.856 132.625  0.00  0.00     0.209 C 
ATOM     19  H           0     133.749 132.961 134.603  0.00  0.00     0.178 HD
ATOM     20  H           0     130.957 130.798 135.413  0.00  0.00     0.178 HD
ATOM     21  H           0     130.022 131.375 131.500  0.00  0.00     0.180 HD
ENDROOT
BRANCH   6  22
ATOM     22  C           0     131.417 134.875 135.341  0.00  0.00     0.208 C 
BRANCH  22  23
ATOM     23  O           0     132.644 135.579 135.666  0.00  0.00    -0.302 OA
BRANCH  23  24
ATOM     24  C           0     133.279 135.325 136.825  0.00  0.00     0.360 C 
ATOM     25  N           0     132.672 135.588 137.999  0.00  0.00    -0.337 N 
ATOM     26  H           0     131.776 135.961 138.009  0.00  0.00     0.164 HD
ATOM     27  O           0     134.401 134.858 136.813  0.00  0.00    -0.239 OA
BRANCH  25  28
ATOM     28  C           0     133.364 135.312 139.260  0.00  0.00     0.125 C 
BRANCH  28  29
ATOM     29  C           0     132.766 134.061 139.907  0.00  0.00     0.020 C 
BRANCH  29  30
ATOM     30  C           0     133.544 133.723 141.181  0.00  0.00     0.002 C 
BRANCH  30  31
ATOM     31  C           0     133.073 132.372 141.722  0.00  0.00     0.002 C 
BRANCH  31  32
ATOM     32  C           0     134.192 131.737 142.552  0.00  0.00     0.020 C 
BRANCH  32  33
ATOM     33  C           0     134.767 132.779 143.513  0.00  0.00     0.122 C 
BRANCH  33  34
ATOM     34  N           0     133.880 132.917 144.671  0.00  0.00    -0.361 N 
ATOM     35  C           0     133.457 134.139 145.054  0.00  0.00     0.217 C 
ATOM     36  O           0     133.810 135.123 144.441  0.00  0.00    -0.274 OA
ATOM     37  H           0     133.597 132.130 145.162  0.00  0.00     0.162 HD
BRANCH  35  38
ATOM     38  C           0     132.545 134.281 146.246  0.00  0.00     0.107 C 
BRANCH  38  39
ATOM     39  C           0     132.825 135.611 146.947  0.00  0.00     0.070 C 
BRANCH  39  40
ATOM     40  C           0     132.924 135.382 148.456  0.00  0.00     0.183 A 
ATOM     41  N           0     132.568 136.482 149.356  0.00  0.00    -0.159 NA
ATOM     42  N           0     133.785 136.269 149.244  0.00  0.00    -0.159 NA
ATOM     43  C           0     132.718 133.945 148.938  0.00  0.00     0.071 C 
ENDBRANCH  39  40
ENDBRANCH  38  39
ENDBRANCH  35  38
ENDBRANCH  33  34
ENDBRANCH  32  33
ENDBRANCH  31  32
ENDBRANCH  30  31
ENDBRANCH  29  30
ENDBRANCH  28  29
ENDBRANCH  25  28
ENDBRANCH  23  24
ENDBRANCH  22  23
ENDBRANCH   6  22
BRANCH  18  44
ATOM     44  O           0     128.030 133.082 132.340  0.00  0.00    -0.362 OA
ATOM     45  H           0     128.107 132.263 132.849  0.00  0.00     0.213 HD
ENDBRANCH  18  44
BRANCH  18  46
ATOM     46  O           0     128.940 134.775 133.688  0.00  0.00    -0.362 OA
ATOM     47  H           0     128.079 135.176 133.508  0.00  0.00     0.213 HD
ENDBRANCH  18  46
TORSDOF 15
ENDMDL
MODEL 9
REMARK VINA RESULT:      -7.7      1.836      2.415
REMARK  15 active torsions:
REMARK  status: ('A' for Active; 'I' for Inactive)
REMARK    1  A    between atoms: C_6  and  C_7 
REMARK    2  A    between atoms: C_7  and  O_8 
REMARK    3  A    between atoms: O_8  and  C_9 
REMARK       I    between atoms: C_9  and  N_10 
REMARK    4  A    between atoms: N_10  and  C_11 
REMARK    5  A    between atoms: C_11  and  C_12 
REMARK    6  A    between atoms: C_12  and  C_13 
REMARK    7  A    between atoms: C_13  and  C_14 
REMARK    8  A    between atoms: C_14  and  C_15 
REMARK    9  A    between atoms: C_15  and  C_16 
REMARK   10  A    between atoms: C_16  and  N_17 
REMARK       I    between atoms: N_17  and  C_18 
REMARK   11  A    between atoms: C_18  and  C_19 
REMARK   12  A    between atoms: C_19  and  C_20 
REMARK   13  A    between atoms: C_20  and  C_21 
REMARK   14  A    between atoms: C_38  and  O_39 
REMARK   15  A    between atoms: C_38  and  O_40 
ROOT
ATOM      1  N           0     134.002 135.492 144.786  0.00  0.00    -0.235 N 
ATOM      2  H           0     133.149 135.885 144.547  0.00  0.00     0.174 HD
ATOM      3  H           0     134.635 135.993 145.322  0.00  0.00     0.174 HD
ATOM      4  C           0     134.297 134.285 144.389  0.00  0.00     0.672 C 
ATOM      5  N           0     133.426 133.527 143.627  0.00  0.00    -0.218 N 
ATOM      6  C           0     133.988 132.527 142.723  0.00  0.00     0.151 C 
ATOM      7  C           0     134.976 131.606 143.412  0.00  0.00     0.180 C 
ATOM      8  N           0     134.234 130.613 144.217  0.00  0.00    -0.216 N 
ATOM      9  C           0     134.922 130.436 145.392  0.00  0.00     0.670 C 
ATOM     10  N           0     134.781 129.402 146.174  0.00  0.00    -0.235 N 
ATOM     11  H           0     134.158 128.696 145.938  0.00  0.00     0.174 HD
ATOM     12  H           0     135.300 129.337 146.992  0.00  0.00     0.174 HD
ATOM     13  C           0     135.872 132.301 144.424  0.00  0.00     0.217 C 
ATOM     14  N           0     135.777 131.480 145.642  0.00  0.00    -0.191 N 
ATOM     15  N           0     135.492 133.688 144.696  0.00  0.00    -0.183 N 
ATOM     16  C           0     136.682 134.306 145.309  0.00  0.00     0.150 C 
ATOM     17  C           0     137.873 133.695 144.534  0.00  0.00     0.093 C 
ATOM     18  C           0     137.334 132.364 143.949  0.00  0.00     0.209 C 
ATOM     19  H           0     132.467 133.656 143.692  0.00  0.00     0.178 HD
ATOM     20  H           0     133.410 130.168 143.963  0.00  0.00     0.178 HD
ATOM     21  H           0     136.240 131.647 146.477  0.00  0.00     0.180 HD
ENDROOT
BRANCH   6  22
ATOM     22  C           0     134.702 133.245 141.575  0.00  0.00     0.208 C 
BRANCH  22  23
ATOM     23  O           0     133.955 134.434 141.208  0.00  0.00    -0.302 OA
BRANCH  23  24
ATOM     24  C           0     133.257 134.462 140.058  0.00  0.00     0.360 C 
ATOM     25  N           0     133.707 135.184 139.013  0.00  0.00    -0.337 N 
ATOM     26  H           0     134.536 135.683 139.090  0.00  0.00     0.164 HD
ATOM     27  O           0     132.219 133.837 139.961  0.00  0.00    -0.239 OA
BRANCH  25  28
ATOM     28  C           0     132.947 135.214 137.760  0.00  0.00     0.125 C 
BRANCH  28  29
ATOM     29  C           0     133.916 135.254 136.577  0.00  0.00     0.020 C 
BRANCH  29  30
ATOM     30  C           0     133.147 135.598 135.300  0.00  0.00     0.002 C 
BRANCH  30  31
ATOM     31  C           0     133.975 135.190 134.080  0.00  0.00     0.002 C 
BRANCH  31  32
ATOM     32  C           0     134.447 133.744 134.245  0.00  0.00     0.020 C 
BRANCH  32  33
ATOM     33  C           0     134.716 133.135 132.868  0.00  0.00     0.122 C 
BRANCH  33  34
ATOM     34  N           0     135.152 131.745 133.025  0.00  0.00    -0.361 N 
ATOM     35  C           0     135.084 130.896 131.980  0.00  0.00     0.217 C 
ATOM     36  O           0     134.662 131.281 130.911  0.00  0.00    -0.274 OA
ATOM     37  H           0     135.489 131.436 133.880  0.00  0.00     0.162 HD
BRANCH  35  38
ATOM     38  C           0     135.531 129.465 132.142  0.00  0.00     0.107 C 
BRANCH  38  39
ATOM     39  C           0     134.621 128.756 133.146  0.00  0.00     0.070 C 
BRANCH  39  40
ATOM     40  C           0     133.829 127.659 132.432  0.00  0.00     0.183 A 
ATOM     41  N           0     132.490 127.976 131.928  0.00  0.00    -0.159 NA
ATOM     42  N           0     132.514 127.287 132.960  0.00  0.00    -0.159 NA
ATOM     43  C           0     134.653 126.595 131.704  0.00  0.00     0.071 C 
ENDBRANCH  39  40
ENDBRANCH  38  39
ENDBRANCH  35  38
ENDBRANCH  33  34
ENDBRANCH  32  33
ENDBRANCH  31  32
ENDBRANCH  30  31
ENDBRANCH  29  30
ENDBRANCH  28  29
ENDBRANCH  25  28
ENDBRANCH  23  24
ENDBRANCH  22  23
ENDBRANCH   6  22
BRANCH  18  44
ATOM     44  O           0     138.078 131.257 144.463  0.00  0.00    -0.362 OA
ATOM     45  H           0     138.519 131.566 145.268  0.00  0.00     0.213 HD
ENDBRANCH  18  44
BRANCH  18  46
ATOM     46  O           0     137.393 132.386 142.523  0.00  0.00    -0.362 OA
ATOM     47  H           0     136.640 131.869 142.204  0.00  0.00     0.213 HD
ENDBRANCH  18  46
TORSDOF 15
ENDMDL
