# created with PyMOL 2.3.4
@<TRIPOS>MOLECULE
ligand_out_0001
29 33 1                 
SMALL
USER_CHARGES
@<TRIPOS>ATOM
1	   N	134.308	137.063	142.407	N.3	1	UNK0	-0.235	
2	   N	133.879	135.957	144.443	N.pl3	1	UNK0	-0.200	
3	   N	135.883	135.535	143.257	N.3	1	UNK0	-0.211	
4	   C	134.676	136.221	143.332	C.3	1	UNK0	0.670	
5	   C	133.862	134.523	144.856	C.2	1	UNK0	0.248	
6	   C	135.345	134.229	145.247	C.3	1	UNK0	0.102	
7	   C	135.948	134.192	143.820	C.3	1	UNK0	0.119	
8	   C	134.900	133.279	143.141	C.2	1	UNK0	0.249	
9	   C	135.391	132.834	145.873	C.2	1	UNK0	0.177	
10	   C	135.063	131.879	143.753	C.3	1	UNK0	0.311	
11	   C	136.825	132.297	145.866	C.3	1	UNK0	0.134	
12	   C	137.296	132.196	144.361	C.2	1	UNK0	0.198	
13	   C	137.326	133.587	143.782	C.2	1	UNK0	0.182	
14	   C	136.869	130.932	146.556	C.2	1	UNK0	0.207	
15	   O	133.638	133.801	143.622	O.2	1	UNK0	-0.350	
16	   O	134.579	131.922	145.136	O.2	1	UNK0	-0.322	
17	   O	136.378	131.385	143.635	O.2	1	UNK0	-0.319	
18	   O	137.685	133.211	146.550	O.2	1	UNK0	-0.382	
19	   O	138.008	130.202	146.097	O.2	1	UNK0	-0.398	
20	   O	137.782	133.531	142.430	O.2	1	UNK0	-0.390	
21	   O	134.220	130.979	143.031	O.2	1	UNK0	-0.341	
22	   H	133.458	137.525	142.482	 H	1	UNK0	0.174	
23	   H	134.885	137.230	141.646	 H	1	UNK0	0.174	
24	   H	133.378	136.646	144.909	 H	1	UNK0	0.180	
25	   H	136.661	135.943	142.847	 H	1	UNK0	0.178	
26	   H	138.144	132.703	147.235	 H	1	UNK0	0.210	
27	   H	138.724	130.843	145.984	 H	1	UNK0	0.209	
28	   H	138.696	133.849	142.429	 H	1	UNK0	0.210	
29	   H	134.650	130.113	143.055	 H	1	UNK0	0.215	
@<TRIPOS>BOND
1 1 4 1
2 1 22 1
3 1 23 1
4 2 5 1
5 2 24 1
6 3 25 1
7 2 4 1
8 3 4 1
9 5 6 1
10 5 15 2
11 6 7 1
12 6 9 1
13 3 7 1
14 7 8 1
15 7 13 1
16 8 10 1
17 8 15 2
18 9 11 1
19 9 16 2
20 10 17 2
21 10 21 2
22 11 12 1
23 11 14 1
24 11 18 2
25 12 13 1
26 13 20 2
27 14 19 2
28 10 16 2
29 12 17 2
30 18 26 1
31 19 27 1
32 20 28 1
33 21 29 1
@<TRIPOS>SUBSTRUCTURE
1	UNK0	1	GROUP	1 ****	UNK
