MODEL 1
REMARK VINA RESULT:      -8.0      0.000      0.000
REMARK  5 active torsions:
REMARK  status: ('A' for Active; 'I' for Inactive)
REMARK    1  A    between atoms: C_14  and  O_15 
REMARK    2  A    between atoms: C_17  and  O_18 
REMARK    3  A    between atoms: C_17  and  C_19 
REMARK    4  A    between atoms: C_19  and  O_20 
REMARK    5  A    between atoms: C_22  and  O_23 
ROOT
ATOM      1  N           0     134.308 137.063 142.407  0.00  0.00    -0.235 N 
ATOM      2  H           0     133.458 137.525 142.482  0.00  0.00     0.174 HD
ATOM      3  H           0     134.885 137.230 141.646  0.00  0.00     0.174 HD
ATOM      4  C           0     134.676 136.221 143.332  0.00  0.00     0.670 C 
ATOM      5  N           0     133.879 135.957 144.443  0.00  0.00    -0.200 N 
ATOM      6  C           0     133.862 134.523 144.856  0.00  0.00     0.248 C 
ATOM      7  C           0     135.345 134.229 145.247  0.00  0.00     0.102 C 
ATOM      8  C           0     135.948 134.192 143.820  0.00  0.00     0.119 C 
ATOM      9  C           0     134.900 133.279 143.141  0.00  0.00     0.249 C 
ATOM     10  O           0     133.638 133.801 143.622  0.00  0.00    -0.350 OA
ATOM     11  N           0     135.883 135.535 143.257  0.00  0.00    -0.211 N 
ATOM     12  C           0     135.391 132.834 145.873  0.00  0.00     0.177 C 
ATOM     13  O           0     134.579 131.922 145.136  0.00  0.00    -0.322 OA
ATOM     14  C           0     135.063 131.879 143.753  0.00  0.00     0.311 C 
ATOM     15  O           0     136.378 131.385 143.635  0.00  0.00    -0.319 OA
ATOM     16  C           0     136.825 132.297 145.866  0.00  0.00     0.134 C 
ATOM     17  C           0     137.296 132.196 144.361  0.00  0.00     0.198 C 
ATOM     18  C           0     137.326 133.587 143.782  0.00  0.00     0.182 C 
ATOM     19  H           0     133.378 136.646 144.909  0.00  0.00     0.180 HD
ATOM     20  H           0     136.661 135.943 142.847  0.00  0.00     0.178 HD
ENDROOT
BRANCH  16  21
ATOM     21  O           0     137.685 133.211 146.550  0.00  0.00    -0.382 OA
ATOM     22  H           0     138.144 132.703 147.235  0.00  0.00     0.210 HD
ENDBRANCH  16  21
BRANCH  16  23
ATOM     23  C           0     136.869 130.932 146.556  0.00  0.00     0.207 C 
BRANCH  23  24
ATOM     24  O           0     138.008 130.202 146.097  0.00  0.00    -0.398 OA
ATOM     25  H           0     138.724 130.843 145.984  0.00  0.00     0.209 HD
ENDBRANCH  23  24
ENDBRANCH  16  23
BRANCH  18  26
ATOM     26  O           0     137.782 133.531 142.430  0.00  0.00    -0.390 OA
ATOM     27  H           0     138.696 133.849 142.429  0.00  0.00     0.210 HD
ENDBRANCH  18  26
BRANCH  14  28
ATOM     28  O           0     134.220 130.979 143.031  0.00  0.00    -0.341 OA
ATOM     29  H           0     134.650 130.113 143.055  0.00  0.00     0.215 HD
ENDBRANCH  14  28
TORSDOF 5
ENDMDL
MODEL 2
REMARK VINA RESULT:      -7.6      2.407      4.595
REMARK  5 active torsions:
REMARK  status: ('A' for Active; 'I' for Inactive)
REMARK    1  A    between atoms: C_14  and  O_15 
REMARK    2  A    between atoms: C_17  and  O_18 
REMARK    3  A    between atoms: C_17  and  C_19 
REMARK    4  A    between atoms: C_19  and  O_20 
REMARK    5  A    between atoms: C_22  and  O_23 
ROOT
ATOM      1  N           0     135.370 131.936 147.965  0.00  0.00    -0.235 N 
ATOM      2  H           0     135.371 132.458 148.783  0.00  0.00     0.174 HD
ATOM      3  H           0     135.766 131.051 147.954  0.00  0.00     0.174 HD
ATOM      4  C           0     134.832 132.424 146.882  0.00  0.00     0.670 C 
ATOM      5  N           0     134.248 133.688 146.858  0.00  0.00    -0.200 N 
ATOM      6  C           0     134.518 134.462 145.610  0.00  0.00     0.248 C 
ATOM      7  C           0     133.853 133.603 144.487  0.00  0.00     0.102 C 
ATOM      8  C           0     134.894 132.456 144.438  0.00  0.00     0.119 C 
ATOM      9  C           0     136.186 133.306 144.406  0.00  0.00     0.249 C 
ATOM     10  O           0     135.944 134.323 145.408  0.00  0.00    -0.350 OA
ATOM     11  N           0     134.817 131.710 145.689  0.00  0.00    -0.211 N 
ATOM     12  C           0     133.905 134.415 143.192  0.00  0.00     0.177 C 
ATOM     13  O           0     135.174 135.052 143.045  0.00  0.00    -0.322 OA
ATOM     14  C           0     136.216 134.021 143.047  0.00  0.00     0.311 C 
ATOM     15  O           0     136.121 133.127 141.961  0.00  0.00    -0.319 OA
ATOM     16  C           0     133.698 133.499 141.983  0.00  0.00     0.134 C 
ATOM     17  C           0     134.874 132.442 141.970  0.00  0.00     0.198 C 
ATOM     18  C           0     134.759 131.595 143.212  0.00  0.00     0.182 C 
ATOM     19  H           0     133.713 134.036 147.588  0.00  0.00     0.180 HD
ATOM     20  H           0     134.749 130.743 145.690  0.00  0.00     0.178 HD
ENDROOT
BRANCH  16  21
ATOM     21  O           0     132.460 132.797 142.117  0.00  0.00    -0.382 OA
ATOM     22  H           0     132.679 131.891 142.379  0.00  0.00     0.210 HD
ENDBRANCH  16  21
BRANCH  16  23
ATOM     23  C           0     133.684 134.330 140.699  0.00  0.00     0.207 C 
BRANCH  23  24
ATOM     24  O           0     133.509 135.710 141.027  0.00  0.00    -0.398 OA
ATOM     25  H           0     133.751 135.810 141.957  0.00  0.00     0.209 HD
ENDBRANCH  23  24
ENDBRANCH  16  23
BRANCH  18  26
ATOM     26  O           0     135.791 130.606 143.211  0.00  0.00    -0.390 OA
ATOM     27  H           0     136.609 131.056 142.960  0.00  0.00     0.210 HD
ENDBRANCH  18  26
BRANCH  14  28
ATOM     28  O           0     137.475 134.686 142.923  0.00  0.00    -0.341 OA
ATOM     29  H           0     138.035 134.362 143.641  0.00  0.00     0.215 HD
ENDBRANCH  14  28
TORSDOF 5
ENDMDL
MODEL 3
REMARK VINA RESULT:      -7.4      2.736      4.810
REMARK  5 active torsions:
REMARK  status: ('A' for Active; 'I' for Inactive)
REMARK    1  A    between atoms: C_14  and  O_15 
REMARK    2  A    between atoms: C_17  and  O_18 
REMARK    3  A    between atoms: C_17  and  C_19 
REMARK    4  A    between atoms: C_19  and  O_20 
REMARK    5  A    between atoms: C_22  and  O_23 
ROOT
ATOM      1  N           0     137.713 129.485 147.352  0.00  0.00    -0.235 N 
ATOM      2  H           0     138.360 129.597 148.066  0.00  0.00     0.174 HD
ATOM      3  H           0     137.541 128.603 146.987  0.00  0.00     0.174 HD
ATOM      4  C           0     137.072 130.520 146.886  0.00  0.00     0.670 C 
ATOM      5  N           0     137.287 131.803 147.386  0.00  0.00    -0.200 N 
ATOM      6  C           0     137.299 132.871 146.343  0.00  0.00     0.248 C 
ATOM      7  C           0     135.859 132.824 145.741  0.00  0.00     0.102 C 
ATOM      8  C           0     136.001 131.514 144.925  0.00  0.00     0.119 C 
ATOM      9  C           0     137.356 131.806 144.238  0.00  0.00     0.249 C 
ATOM     10  O           0     138.166 132.347 145.310  0.00  0.00    -0.350 OA
ATOM     11  N           0     136.143 130.403 145.859  0.00  0.00    -0.211 N 
ATOM     12  C           0     135.712 134.018 144.797  0.00  0.00     0.177 C 
ATOM     13  O           0     136.888 134.184 144.005  0.00  0.00    -0.322 OA
ATOM     14  C           0     137.114 132.952 143.243  0.00  0.00     0.311 C 
ATOM     15  O           0     136.085 132.664 142.325  0.00  0.00    -0.319 OA
ATOM     16  C           0     134.533 133.800 143.846  0.00  0.00     0.134 C 
ATOM     17  C           0     134.836 132.506 142.989  0.00  0.00     0.198 C 
ATOM     18  C           0     134.894 131.325 143.924  0.00  0.00     0.182 C 
ATOM     19  H           0     137.416 131.986 148.330  0.00  0.00     0.180 HD
ATOM     20  H           0     135.598 129.605 145.771  0.00  0.00     0.178 HD
ENDROOT
BRANCH  16  21
ATOM     21  O           0     133.340 133.574 144.600  0.00  0.00    -0.382 OA
ATOM     22  H           0     132.888 134.427 144.669  0.00  0.00     0.210 HD
ENDBRANCH  16  21
BRANCH  16  23
ATOM     23  C           0     134.355 135.029 142.953  0.00  0.00     0.207 C 
BRANCH  23  24
ATOM     24  O           0     134.157 134.612 141.600  0.00  0.00    -0.398 OA
ATOM     25  H           0     134.974 134.813 141.124  0.00  0.00     0.209 HD
ENDBRANCH  23  24
ENDBRANCH  16  23
BRANCH  18  26
ATOM     26  O           0     135.133 130.134 143.172  0.00  0.00    -0.390 OA
ATOM     27  H           0     135.963 129.759 143.498  0.00  0.00     0.210 HD
ENDBRANCH  18  26
BRANCH  14  28
ATOM     28  O           0     138.308 133.135 142.479  0.00  0.00    -0.341 OA
ATOM     29  H           0     138.234 132.562 141.702  0.00  0.00     0.215 HD
ENDBRANCH  14  28
TORSDOF 5
ENDMDL
MODEL 4
REMARK VINA RESULT:      -7.3      2.088      2.990
REMARK  5 active torsions:
REMARK  status: ('A' for Active; 'I' for Inactive)
REMARK    1  A    between atoms: C_14  and  O_15 
REMARK    2  A    between atoms: C_17  and  O_18 
REMARK    3  A    between atoms: C_17  and  C_19 
REMARK    4  A    between atoms: C_19  and  O_20 
REMARK    5  A    between atoms: C_22  and  O_23 
ROOT
ATOM      1  N           0     133.503 135.462 139.450  0.00  0.00    -0.235 N 
ATOM      2  H           0     133.173 135.042 138.641  0.00  0.00     0.174 HD
ATOM      3  H           0     133.821 136.378 139.427  0.00  0.00     0.174 HD
ATOM      4  C           0     133.515 134.796 140.571  0.00  0.00     0.670 C 
ATOM      5  N           0     133.063 133.481 140.649  0.00  0.00    -0.200 N 
ATOM      6  C           0     133.886 132.603 141.532  0.00  0.00     0.248 C 
ATOM      7  C           0     133.737 133.248 142.946  0.00  0.00     0.102 C 
ATOM      8  C           0     134.638 134.488 142.722  0.00  0.00     0.119 C 
ATOM      9  C           0     135.854 133.787 142.073  0.00  0.00     0.249 C 
ATOM     10  O           0     135.249 132.872 141.127  0.00  0.00    -0.350 OA
ATOM     11  N           0     133.987 135.361 141.752  0.00  0.00    -0.211 N 
ATOM     12  C           0     134.388 132.302 143.957  0.00  0.00     0.177 C 
ATOM     13  O           0     135.623 131.795 143.453  0.00  0.00    -0.322 OA
ATOM     14  C           0     136.509 132.927 143.165  0.00  0.00     0.311 C 
ATOM     15  O           0     136.853 133.674 144.310  0.00  0.00    -0.319 OA
ATOM     16  C           0     134.684 133.044 145.263  0.00  0.00     0.134 C 
ATOM     17  C           0     135.695 134.215 144.935  0.00  0.00     0.198 C 
ATOM     18  C           0     135.009 135.182 144.005  0.00  0.00     0.182 C 
ATOM     19  H           0     132.280 133.164 140.172  0.00  0.00     0.180 HD
ATOM     20  H           0     133.878 136.309 141.926  0.00  0.00     0.178 HD
ENDROOT
BRANCH  16  21
ATOM     21  O           0     133.478 133.617 145.776  0.00  0.00    -0.382 OA
ATOM     22  H           0     132.823 132.905 145.809  0.00  0.00     0.210 HD
ENDBRANCH  16  21
BRANCH  16  23
ATOM     23  C           0     135.271 132.073 146.288  0.00  0.00     0.207 C 
BRANCH  23  24
ATOM     24  O           0     134.786 130.755 146.029  0.00  0.00    -0.398 OA
ATOM     25  H           0     135.157 130.180 146.713  0.00  0.00     0.209 HD
ENDBRANCH  23  24
ENDBRANCH  16  23
BRANCH  18  26
ATOM     26  O           0     135.888 136.271 143.717  0.00  0.00    -0.390 OA
ATOM     27  H           0     136.788 135.918 143.744  0.00  0.00     0.210 HD
ENDBRANCH  18  26
BRANCH  14  28
ATOM     28  O           0     137.727 132.395 142.641  0.00  0.00    -0.341 OA
ATOM     29  H           0     137.666 132.454 141.677  0.00  0.00     0.215 HD
ENDBRANCH  14  28
TORSDOF 5
ENDMDL
MODEL 5
REMARK VINA RESULT:      -7.2      1.986      3.024
REMARK  5 active torsions:
REMARK  status: ('A' for Active; 'I' for Inactive)
REMARK    1  A    between atoms: C_14  and  O_15 
REMARK    2  A    between atoms: C_17  and  O_18 
REMARK    3  A    between atoms: C_17  and  C_19 
REMARK    4  A    between atoms: C_19  and  O_20 
REMARK    5  A    between atoms: C_22  and  O_23 
ROOT
ATOM      1  N           0     132.444 133.498 140.831  0.00  0.00    -0.235 N 
ATOM      2  H           0     132.179 132.954 140.072  0.00  0.00     0.174 HD
ATOM      3  H           0     132.241 134.446 140.842  0.00  0.00     0.174 HD
ATOM      4  C           0     133.068 132.952 141.837  0.00  0.00     0.670 C 
ATOM      5  N           0     133.374 131.593 141.863  0.00  0.00    -0.200 N 
ATOM      6  C           0     134.717 131.280 142.433  0.00  0.00     0.248 C 
ATOM      7  C           0     134.623 131.779 143.910  0.00  0.00     0.102 C 
ATOM      8  C           0     134.689 133.303 143.634  0.00  0.00     0.119 C 
ATOM      9  C           0     135.887 133.317 142.655  0.00  0.00     0.249 C 
ATOM     10  O           0     135.609 132.205 141.769  0.00  0.00    -0.350 OA
ATOM     11  N           0     133.470 133.699 142.939  0.00  0.00    -0.211 N 
ATOM     12  C           0     135.889 131.321 144.635  0.00  0.00     0.177 C 
ATOM     13  O           0     137.040 131.514 143.814  0.00  0.00    -0.322 OA
ATOM     14  C           0     137.133 132.935 143.468  0.00  0.00     0.311 C 
ATOM     15  O           0     137.329 133.772 144.585  0.00  0.00    -0.319 OA
ATOM     16  C           0     136.087 132.132 145.918  0.00  0.00     0.134 C 
ATOM     17  C           0     136.255 133.650 145.510  0.00  0.00     0.198 C 
ATOM     18  C           0     134.969 134.111 144.873  0.00  0.00     0.182 C 
ATOM     19  H           0     132.766 130.910 141.538  0.00  0.00     0.180 HD
ATOM     20  H           0     132.948 134.459 143.241  0.00  0.00     0.178 HD
ENDROOT
BRANCH  16  21
ATOM     21  O           0     134.930 132.011 146.749  0.00  0.00    -0.382 OA
ATOM     22  H           0     134.483 132.869 146.732  0.00  0.00     0.210 HD
ENDBRANCH  16  21
BRANCH  16  23
ATOM     23  C           0     137.317 131.619 146.669  0.00  0.00     0.207 C 
BRANCH  23  24
ATOM     24  O           0     137.667 130.322 146.183  0.00  0.00    -0.398 OA
ATOM     25  H           0     137.517 130.331 145.228  0.00  0.00     0.209 HD
ENDBRANCH  23  24
ENDBRANCH  16  23
BRANCH  18  26
ATOM     26  O           0     135.078 135.492 144.523  0.00  0.00    -0.390 OA
ATOM     27  H           0     135.759 135.554 143.840  0.00  0.00     0.210 HD
ENDBRANCH  18  26
BRANCH  14  28
ATOM     28  O           0     138.278 133.097 142.628  0.00  0.00    -0.341 OA
ATOM     29  H           0     138.317 134.032 142.384  0.00  0.00     0.215 HD
ENDBRANCH  14  28
TORSDOF 5
ENDMDL
MODEL 6
REMARK VINA RESULT:      -7.1      1.764      2.585
REMARK  5 active torsions:
REMARK  status: ('A' for Active; 'I' for Inactive)
REMARK    1  A    between atoms: C_14  and  O_15 
REMARK    2  A    between atoms: C_17  and  O_18 
REMARK    3  A    between atoms: C_17  and  C_19 
REMARK    4  A    between atoms: C_19  and  O_20 
REMARK    5  A    between atoms: C_22  and  O_23 
ROOT
ATOM      1  N           0     132.805 133.754 140.660  0.00  0.00    -0.235 N 
ATOM      2  H           0     132.317 134.561 140.433  0.00  0.00     0.174 HD
ATOM      3  H           0     132.503 132.895 140.329  0.00  0.00     0.174 HD
ATOM      4  C           0     133.872 133.827 141.406  0.00  0.00     0.670 C 
ATOM      5  N           0     134.342 135.043 141.897  0.00  0.00    -0.200 N 
ATOM      6  C           0     134.850 134.980 143.300  0.00  0.00     0.248 C 
ATOM      7  C           0     136.059 133.994 143.216  0.00  0.00     0.102 C 
ATOM      8  C           0     135.260 132.676 143.057  0.00  0.00     0.119 C 
ATOM      9  C           0     134.224 132.885 144.187  0.00  0.00     0.249 C 
ATOM     10  O           0     133.818 134.265 144.018  0.00  0.00    -0.350 OA
ATOM     11  N           0     134.596 132.694 141.759  0.00  0.00    -0.211 N 
ATOM     12  C           0     136.769 134.018 144.571  0.00  0.00     0.177 C 
ATOM     13  O           0     135.822 134.009 145.639  0.00  0.00    -0.322 OA
ATOM     14  C           0     134.991 132.808 145.516  0.00  0.00     0.311 C 
ATOM     15  O           0     135.718 131.608 145.654  0.00  0.00    -0.319 OA
ATOM     16  C           0     137.659 132.782 144.724  0.00  0.00     0.134 C 
ATOM     17  C           0     136.729 131.505 144.657  0.00  0.00     0.198 C 
ATOM     18  C           0     136.102 131.450 143.288  0.00  0.00     0.182 C 
ATOM     19  H           0     134.341 135.859 141.373  0.00  0.00     0.180 HD
ATOM     20  H           0     134.662 131.939 141.154  0.00  0.00     0.178 HD
ENDROOT
BRANCH  16  21
ATOM     21  O           0     138.590 132.721 143.640  0.00  0.00    -0.382 OA
ATOM     22  H           0     138.392 133.470 143.060  0.00  0.00     0.210 HD
ENDBRANCH  16  21
BRANCH  16  23
ATOM     23  C           0     138.416 132.850 146.051  0.00  0.00     0.207 C 
BRANCH  23  24
ATOM     24  O           0     138.413 131.562 146.669  0.00  0.00    -0.398 OA
ATOM     25  H           0     139.077 131.587 147.372  0.00  0.00     0.209 HD
ENDBRANCH  23  24
ENDBRANCH  16  23
BRANCH  18  26
ATOM     26  O           0     135.281 130.285 143.186  0.00  0.00    -0.390 OA
ATOM     27  H           0     135.163 130.107 142.243  0.00  0.00     0.210 HD
ENDBRANCH  18  26
BRANCH  14  28
ATOM     28  O           0     134.039 132.835 146.580  0.00  0.00    -0.341 OA
ATOM     29  H           0     133.212 133.173 146.208  0.00  0.00     0.215 HD
ENDBRANCH  14  28
TORSDOF 5
ENDMDL
MODEL 7
REMARK VINA RESULT:      -6.9      2.355      3.820
REMARK  5 active torsions:
REMARK  status: ('A' for Active; 'I' for Inactive)
REMARK    1  A    between atoms: C_14  and  O_15 
REMARK    2  A    between atoms: C_17  and  O_18 
REMARK    3  A    between atoms: C_17  and  C_19 
REMARK    4  A    between atoms: C_19  and  O_20 
REMARK    5  A    between atoms: C_22  and  O_23 
ROOT
ATOM      1  N           0     131.041 132.494 141.205  0.00  0.00    -0.235 N 
ATOM      2  H           0     130.487 133.061 140.646  0.00  0.00     0.174 HD
ATOM      3  H           0     130.652 131.729 141.657  0.00  0.00     0.174 HD
ATOM      4  C           0     132.310 132.758 141.345  0.00  0.00     0.670 C 
ATOM      5  N           0     132.908 133.844 140.709  0.00  0.00    -0.200 N 
ATOM      6  C           0     133.915 134.563 141.545  0.00  0.00     0.248 C 
ATOM      7  C           0     135.019 133.490 141.807  0.00  0.00     0.102 C 
ATOM      8  C           0     134.247 132.621 142.831  0.00  0.00     0.119 C 
ATOM      9  C           0     133.717 133.747 143.750  0.00  0.00     0.249 C 
ATOM     10  O           0     133.250 134.750 142.816  0.00  0.00    -0.350 OA
ATOM     11  N           0     133.137 131.974 142.142  0.00  0.00    -0.211 N 
ATOM     12  C           0     136.192 134.192 142.492  0.00  0.00     0.177 C 
ATOM     13  O           0     135.726 135.098 143.492  0.00  0.00    -0.322 OA
ATOM     14  C           0     134.935 134.345 144.470  0.00  0.00     0.311 C 
ATOM     15  O           0     135.684 133.375 145.167  0.00  0.00    -0.319 OA
ATOM     16  C           0     137.098 133.165 143.176  0.00  0.00     0.134 C 
ATOM     17  C           0     136.239 132.417 144.273  0.00  0.00     0.198 C 
ATOM     18  C           0     135.137 131.663 143.575  0.00  0.00     0.182 C 
ATOM     19  H           0     132.690 134.109 139.801  0.00  0.00     0.180 HD
ATOM     20  H           0     132.981 131.020 142.230  0.00  0.00     0.178 HD
ENDROOT
BRANCH  16  21
ATOM     21  O           0     137.545 132.202 142.218  0.00  0.00    -0.382 OA
ATOM     22  H           0     138.500 132.104 142.345  0.00  0.00     0.210 HD
ENDBRANCH  16  21
BRANCH  16  23
ATOM     23  C           0     138.303 133.871 143.800  0.00  0.00     0.207 C 
BRANCH  23  24
ATOM     24  O           0     138.652 135.007 143.008  0.00  0.00    -0.398 OA
ATOM     25  H           0     137.824 135.413 142.719  0.00  0.00     0.209 HD
ENDBRANCH  23  24
ENDBRANCH  16  23
BRANCH  18  26
ATOM     26  O           0     134.363 130.948 144.540  0.00  0.00    -0.390 OA
ATOM     27  H           0     133.682 131.557 144.858  0.00  0.00     0.210 HD
ENDBRANCH  18  26
BRANCH  14  28
ATOM     28  O           0     134.461 135.277 145.445  0.00  0.00    -0.341 OA
ATOM     29  H           0     134.466 136.148 145.025  0.00  0.00     0.215 HD
ENDBRANCH  14  28
TORSDOF 5
ENDMDL
MODEL 8
REMARK VINA RESULT:      -6.8      2.095      3.741
REMARK  5 active torsions:
REMARK  status: ('A' for Active; 'I' for Inactive)
REMARK    1  A    between atoms: C_14  and  O_15 
REMARK    2  A    between atoms: C_17  and  O_18 
REMARK    3  A    between atoms: C_17  and  C_19 
REMARK    4  A    between atoms: C_19  and  O_20 
REMARK    5  A    between atoms: C_22  and  O_23 
ROOT
ATOM      1  N           0     132.032 133.281 147.817  0.00  0.00    -0.235 N 
ATOM      2  H           0     132.066 133.158 148.779  0.00  0.00     0.174 HD
ATOM      3  H           0     131.207 133.113 147.336  0.00  0.00     0.174 HD
ATOM      4  C           0     133.093 133.679 147.173  0.00  0.00     0.670 C 
ATOM      5  N           0     134.295 133.938 147.827  0.00  0.00    -0.200 N 
ATOM      6  C           0     135.506 133.482 147.083  0.00  0.00     0.248 C 
ATOM      7  C           0     135.480 134.329 145.771  0.00  0.00     0.102 C 
ATOM      8  C           0     134.315 133.598 145.057  0.00  0.00     0.119 C 
ATOM      9  C           0     134.771 132.138 145.288  0.00  0.00     0.249 C 
ATOM     10  O           0     135.184 132.131 146.676  0.00  0.00    -0.350 OA
ATOM     11  N           0     133.085 133.862 145.794  0.00  0.00    -0.211 N 
ATOM     12  C           0     136.793 134.075 145.030  0.00  0.00     0.177 C 
ATOM     13  O           0     137.132 132.688 145.061  0.00  0.00    -0.322 OA
ATOM     14  C           0     136.039 131.928 144.446  0.00  0.00     0.311 C 
ATOM     15  O           0     135.843 132.232 143.084  0.00  0.00    -0.319 OA
ATOM     16  C           0     136.663 134.492 143.563  0.00  0.00     0.134 C 
ATOM     17  C           0     135.528 133.609 142.907  0.00  0.00     0.198 C 
ATOM     18  C           0     134.225 133.933 143.592  0.00  0.00     0.182 C 
ATOM     19  H           0     134.342 134.376 148.691  0.00  0.00     0.180 HD
ATOM     20  H           0     132.284 134.163 145.338  0.00  0.00     0.178 HD
ENDROOT
BRANCH  16  21
ATOM     21  O           0     136.271 135.865 143.485  0.00  0.00    -0.382 OA
ATOM     22  H           0     136.794 136.265 142.775  0.00  0.00     0.210 HD
ENDBRANCH  16  21
BRANCH  16  23
ATOM     23  C           0     138.002 134.297 142.848  0.00  0.00     0.207 C 
BRANCH  23  24
ATOM     24  O           0     138.702 135.541 142.798  0.00  0.00    -0.398 OA
ATOM     25  H           0     139.314 135.488 142.052  0.00  0.00     0.209 HD
ENDBRANCH  23  24
ENDBRANCH  16  23
BRANCH  18  26
ATOM     26  O           0     133.172 133.173 142.997  0.00  0.00    -0.390 OA
ATOM     27  H           0     132.427 133.777 142.873  0.00  0.00     0.210 HD
ENDBRANCH  18  26
BRANCH  14  28
ATOM     28  O           0     136.391 130.545 144.512  0.00  0.00    -0.341 OA
ATOM     29  H           0     136.013 130.198 145.332  0.00  0.00     0.215 HD
ENDBRANCH  14  28
TORSDOF 5
ENDMDL
MODEL 9
REMARK VINA RESULT:      -6.7      2.465      4.648
REMARK  5 active torsions:
REMARK  status: ('A' for Active; 'I' for Inactive)
REMARK    1  A    between atoms: C_14  and  O_15 
REMARK    2  A    between atoms: C_17  and  O_18 
REMARK    3  A    between atoms: C_17  and  C_19 
REMARK    4  A    between atoms: C_19  and  O_20 
REMARK    5  A    between atoms: C_22  and  O_23 
ROOT
ATOM      1  N           0     139.117 131.952 147.504  0.00  0.00    -0.235 N 
ATOM      2  H           0     140.045 131.692 147.384  0.00  0.00     0.174 HD
ATOM      3  H           0     138.656 131.737 148.329  0.00  0.00     0.174 HD
ATOM      4  C           0     138.493 132.594 146.556  0.00  0.00     0.670 C 
ATOM      5  N           0     139.121 132.927 145.358  0.00  0.00    -0.200 N 
ATOM      6  C           0     138.256 132.772 144.152  0.00  0.00     0.248 C 
ATOM      7  C           0     137.098 133.793 144.388  0.00  0.00     0.102 C 
ATOM      8  C           0     136.335 133.013 145.488  0.00  0.00     0.119 C 
ATOM      9  C           0     136.309 131.618 144.818  0.00  0.00     0.249 C 
ATOM     10  O           0     137.657 131.465 144.311  0.00  0.00    -0.350 OA
ATOM     11  N           0     137.163 132.978 146.687  0.00  0.00    -0.211 N 
ATOM     12  C           0     136.263 133.849 143.108  0.00  0.00     0.177 C 
ATOM     13  O           0     136.058 132.540 142.579  0.00  0.00    -0.322 OA
ATOM     14  C           0     135.384 131.727 143.596  0.00  0.00     0.311 C 
ATOM     15  O           0     134.099 132.198 143.929  0.00  0.00    -0.319 OA
ATOM     16  C           0     134.888 134.458 143.398  0.00  0.00     0.134 C 
ATOM     17  C           0     134.157 133.524 144.444  0.00  0.00     0.198 C 
ATOM     18  C           0     134.947 133.545 145.727  0.00  0.00     0.182 C 
ATOM     19  H           0     140.041 133.234 145.312  0.00  0.00     0.180 HD
ATOM     20  H           0     136.800 133.221 147.553  0.00  0.00     0.178 HD
ENDROOT
BRANCH  16  21
ATOM     21  O           0     135.048 135.753 143.982  0.00  0.00    -0.382 OA
ATOM     22  H           0     134.829 136.398 143.294  0.00  0.00     0.210 HD
ENDBRANCH  16  21
BRANCH  16  23
ATOM     23  C           0     134.088 134.572 142.100  0.00  0.00     0.207 C 
BRANCH  23  24
ATOM     24  O           0     133.887 135.950 141.783  0.00  0.00    -0.398 OA
ATOM     25  H           0     133.140 135.990 141.169  0.00  0.00     0.209 HD
ENDBRANCH  23  24
ENDBRANCH  16  23
BRANCH  18  26
ATOM     26  O           0     134.291 132.735 146.704  0.00  0.00    -0.390 OA
ATOM     27  H           0     134.440 131.814 146.449  0.00  0.00     0.210 HD
ENDBRANCH  18  26
BRANCH  14  28
ATOM     28  O           0     135.213 130.416 143.052  0.00  0.00    -0.341 OA
ATOM     29  H           0     134.665 130.511 142.261  0.00  0.00     0.215 HD
ENDBRANCH  14  28
TORSDOF 5
ENDMDL
