# created with PyMOL 2.3.4
@<TRIPOS>MOLECULE
ligand_out_0001
51 55 1                 
SMALL
USER_CHARGES
@<TRIPOS>ATOM
1	   N	130.693	134.908	134.799	N.3	1	UNK0	-0.218	
2	   N	130.985	133.278	136.471	N.3	1	UNK0	-0.235	
3	   N	130.805	132.651	134.223	N.3	1	UNK0	-0.183	
4	   N	129.130	132.459	132.488	N.3	1	UNK0	-0.191	
5	   N	129.169	134.702	132.129	N.3	1	UNK0	-0.216	
6	   N	127.304	133.462	131.368	N.3	1	UNK0	-0.235	
7	   N	133.545	135.757	136.799	N.pl3	1	UNK0	-0.335	
8	   N	133.887	134.795	140.341	N.pl3	1	UNK0	-0.355	
9	   C	132.669	135.185	133.411	C.2	1	UNK0	0.208	
10	   C	131.142	135.258	133.456	C.3	1	UNK0	0.151	
11	   C	130.832	133.595	135.216	C.3	1	UNK0	0.672	
12	   C	130.506	132.877	132.809	C.3	1	UNK0	0.217	
13	   C	131.125	131.216	134.329	C.3	1	UNK0	0.150	
14	   C	130.578	134.337	132.392	C.3	1	UNK0	0.180	
15	   C	131.510	132.007	132.034	C.3	1	UNK0	0.209	
16	   C	128.464	133.536	131.959	C.3	1	UNK0	0.670	
17	   C	131.925	130.905	133.042	C.3	1	UNK0	0.093	
18	   C	133.816	135.359	135.540	C.2	1	UNK0	0.360	
19	   C	134.189	135.091	137.933	C.3	1	UNK0	0.144	
20	   C	133.177	134.922	139.067	C.3	1	UNK0	0.142	
21	   C	133.411	133.978	141.301	C.2	1	UNK0	0.251	
22	   C	134.129	133.850	142.590	C.3	1	UNK0	0.032	
23	   C	134.736	134.968	143.164	C.3	1	UNK0	0.018	
24	   C	135.401	134.850	144.364	C.3	1	UNK0	0.016	
25	   C	135.477	133.610	145.002	C.3	1	UNK0	0.015	
26	   C	134.874	132.490	144.424	C.3	1	UNK0	0.016	
27	   C	134.205	132.610	143.226	C.3	1	UNK0	0.018	
28	   C	136.195	133.482	146.289	C.2	1	UNK0	0.192	
29	   C	137.311	132.524	146.419	C.3	1	UNK0	0.015	
30	   C	137.162	131.374	147.200	C.3	1	UNK0	0.015	
31	   C	138.207	130.481	147.312	C.3	1	UNK0	0.001	
32	   C	139.405	130.727	146.665	C.3	1	UNK0	0.000	
33	   C	139.562	131.867	145.895	C.3	1	UNK0	0.001	
34	   C	138.524	132.766	145.770	C.3	1	UNK0	0.015	
35	   O	130.891	131.424	130.886	O.2	1	UNK0	-0.362	
36	   O	132.646	132.784	131.649	O.2	1	UNK0	-0.362	
37	   O	133.225	135.972	134.498	O.2	1	UNK0	-0.302	
38	   O	134.595	134.447	135.346	O.co2	1	UNK0	-0.239	
39	   O	132.390	133.347	141.109	O.2	1	UNK0	-0.268	
40	   O	135.866	134.165	147.238	O.2	1	UNK0	-0.287	
41	   H	130.305	135.577	135.386	 H	1	UNK0	0.178	
42	   H	131.004	133.973	137.148	 H	1	UNK0	0.174	
43	   H	131.076	132.347	136.729	 H	1	UNK0	0.174	
44	   H	128.809	135.602	132.086	 H	1	UNK0	0.178	
45	   H	126.887	134.263	131.016	 H	1	UNK0	0.174	
46	   H	126.859	132.604	131.280	 H	1	UNK0	0.174	
47	   H	128.759	131.573	132.626	 H	1	UNK0	0.180	
48	   H	131.277	130.545	130.776	 H	1	UNK0	0.213	
49	   H	133.231	132.821	132.418	 H	1	UNK0	0.213	
50	   H	132.923	136.486	136.953	 H	1	UNK0	0.164	
51	   H	134.703	135.299	140.495	 H	1	UNK0	0.162	
@<TRIPOS>BOND
1 1 11 1
2 1 41 1
3 2 42 1
4 2 43 1
5 3 12 1
6 3 13 1
7 4 16 1
8 4 47 1
9 5 16 1
10 5 44 1
11 6 45 1
12 6 46 1
13 7 19 1
14 7 50 1
15 8 21 1
16 8 51 1
17 9 10 1
18 9 37 2
19 1 10 1
20 10 14 1
21 2 11 1
22 3 11 1
23 4 12 1
24 12 14 1
25 12 15 1
26 13 17 1
27 5 14 1
28 15 17 1
29 15 35 2
30 15 36 2
31 6 16 1
32 7 18 1
33 18 38 2
34 19 20 1
35 8 20 1
36 21 22 1
37 21 39 2
38 22 23 1
39 22 27 1
40 23 24 1
41 24 25 1
42 25 26 1
43 25 28 1
44 26 27 1
45 28 29 1
46 28 40 2
47 29 30 1
48 29 34 1
49 30 31 1
50 31 32 1
51 32 33 1
52 33 34 1
53 35 48 1
54 36 49 1
55 18 37 2
@<TRIPOS>SUBSTRUCTURE
1	UNK0	1	GROUP	1 ****	UNK
