MODEL 1
REMARK VINA RESULT:      -9.6      0.000      0.000
REMARK  11 active torsions:
REMARK  status: ('A' for Active; 'I' for Inactive)
REMARK    1  A    between atoms: C_6  and  C_7 
REMARK    2  A    between atoms: C_7  and  O_8 
REMARK    3  A    between atoms: O_8  and  C_9 
REMARK       I    between atoms: C_9  and  N_10 
REMARK    4  A    between atoms: N_10  and  C_11 
REMARK    5  A    between atoms: C_11  and  C_12 
REMARK    6  A    between atoms: C_12  and  N_13 
REMARK       I    between atoms: N_13  and  C_14 
REMARK    7  A    between atoms: C_14  and  C_15 
REMARK    8  A    between atoms: C_18  and  C_19 
REMARK    9  A    between atoms: C_19  and  C_20 
REMARK   10  A    between atoms: C_42  and  O_43 
REMARK   11  A    between atoms: C_42  and  O_44 
ROOT
ATOM      1  C           0     132.669 135.185 133.411  0.00  0.00     0.208 C 
ENDROOT
BRANCH   1   2
ATOM      2  C           0     131.142 135.258 133.456  0.00  0.00     0.151 C 
ATOM      3  N           0     130.693 134.908 134.799  0.00  0.00    -0.218 N 
ATOM      4  C           0     130.832 133.595 135.216  0.00  0.00     0.672 C 
ATOM      5  H           0     130.305 135.577 135.386  0.00  0.00     0.178 HD
ATOM      6  N           0     130.985 133.278 136.471  0.00  0.00    -0.235 N 
ATOM      7  N           0     130.805 132.651 134.223  0.00  0.00    -0.183 N 
ATOM      8  H           0     131.004 133.973 137.148  0.00  0.00     0.174 HD
ATOM      9  H           0     131.076 132.347 136.729  0.00  0.00     0.174 HD
ATOM     10  C           0     130.506 132.877 132.809  0.00  0.00     0.217 C 
ATOM     11  C           0     131.125 131.216 134.329  0.00  0.00     0.150 C 
ATOM     12  C           0     130.578 134.337 132.392  0.00  0.00     0.180 C 
ATOM     13  C           0     131.510 132.007 132.034  0.00  0.00     0.209 C 
ATOM     14  N           0     129.130 132.459 132.488  0.00  0.00    -0.191 N 
ATOM     15  N           0     129.169 134.702 132.129  0.00  0.00    -0.216 N 
ATOM     16  C           0     128.464 133.536 131.959  0.00  0.00     0.670 C 
ATOM     17  H           0     128.809 135.602 132.086  0.00  0.00     0.178 HD
ATOM     18  N           0     127.304 133.462 131.368  0.00  0.00    -0.235 N 
ATOM     19  H           0     126.887 134.263 131.016  0.00  0.00     0.174 HD
ATOM     20  H           0     126.859 132.604 131.280  0.00  0.00     0.174 HD
ATOM     21  C           0     131.925 130.905 133.042  0.00  0.00     0.093 C 
ATOM     22  H           0     128.759 131.573 132.626  0.00  0.00     0.180 HD
BRANCH  13  23
ATOM     23  O           0     130.891 131.424 130.886  0.00  0.00    -0.362 OA
ATOM     24  H           0     131.277 130.545 130.776  0.00  0.00     0.213 HD
ENDBRANCH  13  23
BRANCH  13  25
ATOM     25  O           0     132.646 132.784 131.649  0.00  0.00    -0.362 OA
ATOM     26  H           0     133.231 132.821 132.418  0.00  0.00     0.213 HD
ENDBRANCH  13  25
ENDBRANCH   1   2
BRANCH   1  27
ATOM     27  O           0     133.225 135.972 134.498  0.00  0.00    -0.302 OA
BRANCH  27  28
ATOM     28  C           0     133.816 135.359 135.540  0.00  0.00     0.360 C 
ATOM     29  N           0     133.545 135.757 136.799  0.00  0.00    -0.335 N 
ATOM     30  H           0     132.923 136.486 136.953  0.00  0.00     0.164 HD
ATOM     31  O           0     134.595 134.447 135.346  0.00  0.00    -0.239 OA
BRANCH  29  32
ATOM     32  C           0     134.189 135.091 137.933  0.00  0.00     0.144 C 
BRANCH  32  33
ATOM     33  C           0     133.177 134.922 139.067  0.00  0.00     0.142 C 
BRANCH  33  34
ATOM     34  N           0     133.887 134.795 140.341  0.00  0.00    -0.355 N 
ATOM     35  C           0     133.411 133.978 141.301  0.00  0.00     0.251 C 
ATOM     36  O           0     132.390 133.347 141.109  0.00  0.00    -0.268 OA
ATOM     37  H           0     134.703 135.299 140.495  0.00  0.00     0.162 HD
BRANCH  35  38
ATOM     38  C           0     134.129 133.850 142.590  0.00  0.00     0.032 A 
ATOM     39  C           0     134.736 134.968 143.164  0.00  0.00     0.018 A 
ATOM     40  C           0     135.401 134.850 144.364  0.00  0.00     0.016 A 
ATOM     41  C           0     135.477 133.610 145.002  0.00  0.00     0.015 A 
ATOM     42  C           0     134.874 132.490 144.424  0.00  0.00     0.016 A 
ATOM     43  C           0     134.205 132.610 143.226  0.00  0.00     0.018 A 
BRANCH  41  44
ATOM     44  C           0     136.195 133.482 146.289  0.00  0.00     0.192 C 
ATOM     45  O           0     135.866 134.165 147.238  0.00  0.00    -0.287 OA
BRANCH  44  46
ATOM     46  C           0     137.311 132.524 146.419  0.00  0.00     0.015 A 
ATOM     47  C           0     137.162 131.374 147.200  0.00  0.00     0.015 A 
ATOM     48  C           0     138.207 130.481 147.312  0.00  0.00     0.001 A 
ATOM     49  C           0     139.405 130.727 146.665  0.00  0.00     0.000 A 
ATOM     50  C           0     139.562 131.867 145.895  0.00  0.00     0.001 A 
ATOM     51  C           0     138.524 132.766 145.770  0.00  0.00     0.015 A 
ENDBRANCH  44  46
ENDBRANCH  41  44
ENDBRANCH  35  38
ENDBRANCH  33  34
ENDBRANCH  32  33
ENDBRANCH  29  32
ENDBRANCH  27  28
ENDBRANCH   1  27
TORSDOF 11
ENDMDL
MODEL 2
REMARK VINA RESULT:      -9.6      1.431      2.140
REMARK  11 active torsions:
REMARK  status: ('A' for Active; 'I' for Inactive)
REMARK    1  A    between atoms: C_6  and  C_7 
REMARK    2  A    between atoms: C_7  and  O_8 
REMARK    3  A    between atoms: O_8  and  C_9 
REMARK       I    between atoms: C_9  and  N_10 
REMARK    4  A    between atoms: N_10  and  C_11 
REMARK    5  A    between atoms: C_11  and  C_12 
REMARK    6  A    between atoms: C_12  and  N_13 
REMARK       I    between atoms: N_13  and  C_14 
REMARK    7  A    between atoms: C_14  and  C_15 
REMARK    8  A    between atoms: C_18  and  C_19 
REMARK    9  A    between atoms: C_19  and  C_20 
REMARK   10  A    between atoms: C_42  and  O_43 
REMARK   11  A    between atoms: C_42  and  O_44 
ROOT
ATOM      1  C           0     132.538 135.286 133.588  0.00  0.00     0.208 C 
ENDROOT
BRANCH   1   2
ATOM      2  C           0     131.009 135.290 133.631  0.00  0.00     0.151 C 
ATOM      3  N           0     130.574 134.855 134.954  0.00  0.00    -0.218 N 
ATOM      4  C           0     130.770 133.531 135.308  0.00  0.00     0.672 C 
ATOM      5  H           0     130.156 135.477 135.571  0.00  0.00     0.178 HD
ATOM      6  N           0     130.935 133.160 136.546  0.00  0.00    -0.235 N 
ATOM      7  N           0     130.786 132.636 134.270  0.00  0.00    -0.183 N 
ATOM      8  H           0     130.922 133.822 137.256  0.00  0.00     0.174 HD
ATOM      9  H           0     131.067 132.224 136.759  0.00  0.00     0.174 HD
ATOM     10  C           0     130.479 132.917 132.867  0.00  0.00     0.217 C 
ATOM     11  C           0     131.170 131.213 134.308  0.00  0.00     0.150 C 
ATOM     12  C           0     130.488 134.398 132.521  0.00  0.00     0.180 C 
ATOM     13  C           0     131.523 132.131 132.055  0.00  0.00     0.209 C 
ATOM     14  N           0     129.124 132.455 132.522  0.00  0.00    -0.191 N 
ATOM     15  N           0     129.065 134.712 132.271  0.00  0.00    -0.216 N 
ATOM     16  C           0     128.412 133.526 132.043  0.00  0.00     0.670 C 
ATOM     17  H           0     128.666 135.596 132.271  0.00  0.00     0.178 HD
ATOM     18  N           0     127.258 133.429 131.445  0.00  0.00    -0.235 N 
ATOM     19  H           0     126.806 134.227 131.130  0.00  0.00     0.174 HD
ATOM     20  H           0     126.851 132.558 131.314  0.00  0.00     0.174 HD
ATOM     21  C           0     131.984 131.000 133.010  0.00  0.00     0.093 C 
ATOM     22  H           0     128.793 131.548 132.615  0.00  0.00     0.180 HD
BRANCH  13  23
ATOM     23  O           0     130.931 131.577 130.877  0.00  0.00    -0.362 OA
ATOM     24  H           0     130.045 131.955 130.806  0.00  0.00     0.213 HD
ENDBRANCH  13  23
BRANCH  13  25
ATOM     25  O           0     132.624 132.974 131.712  0.00  0.00    -0.362 OA
ATOM     26  H           0     132.455 133.302 130.818  0.00  0.00     0.213 HD
ENDBRANCH  13  25
ENDBRANCH   1   2
BRANCH   1  27
ATOM     27  O           0     133.057 136.019 134.729  0.00  0.00    -0.302 OA
BRANCH  27  28
ATOM     28  C           0     133.643 135.360 135.745  0.00  0.00     0.360 C 
ATOM     29  N           0     133.371 135.704 137.019  0.00  0.00    -0.335 N 
ATOM     30  H           0     132.751 136.427 137.204  0.00  0.00     0.164 HD
ATOM     31  O           0     134.418 134.453 135.513  0.00  0.00    -0.239 OA
BRANCH  29  32
ATOM     32  C           0     134.008 134.986 138.125  0.00  0.00     0.144 C 
BRANCH  32  33
ATOM     33  C           0     133.182 135.171 139.398  0.00  0.00     0.142 C 
BRANCH  33  34
ATOM     34  N           0     133.899 134.590 140.535  0.00  0.00    -0.355 N 
ATOM     35  C           0     133.323 133.619 141.272  0.00  0.00     0.251 C 
ATOM     36  O           0     132.207 133.227 140.993  0.00  0.00    -0.268 OA
ATOM     37  H           0     134.790 134.903 140.758  0.00  0.00     0.162 HD
BRANCH  35  38
ATOM     38  C           0     134.048 133.033 142.422  0.00  0.00     0.032 A 
ATOM     39  C           0     134.130 131.647 142.561  0.00  0.00     0.018 A 
ATOM     40  C           0     134.808 131.100 143.628  0.00  0.00     0.016 A 
ATOM     41  C           0     135.405 131.933 144.576  0.00  0.00     0.015 A 
ATOM     42  C           0     135.317 133.321 144.440  0.00  0.00     0.016 A 
ATOM     43  C           0     134.643 133.866 143.370  0.00  0.00     0.018 A 
BRANCH  41  44
ATOM     44  C           0     136.129 131.348 145.726  0.00  0.00     0.192 C 
ATOM     45  O           0     137.340 131.253 145.696  0.00  0.00    -0.287 OA
BRANCH  44  46
ATOM     46  C           0     135.380 130.878 146.909  0.00  0.00     0.015 A 
ATOM     47  C           0     134.949 131.791 147.875  0.00  0.00     0.015 A 
ATOM     48  C           0     134.245 131.346 148.974  0.00  0.00     0.001 A 
ATOM     49  C           0     133.977 129.997 149.128  0.00  0.00     0.000 A 
ATOM     50  C           0     134.406 129.086 148.179  0.00  0.00     0.001 A 
ATOM     51  C           0     135.106 129.518 147.072  0.00  0.00     0.015 A 
ENDBRANCH  44  46
ENDBRANCH  41  44
ENDBRANCH  35  38
ENDBRANCH  33  34
ENDBRANCH  32  33
ENDBRANCH  29  32
ENDBRANCH  27  28
ENDBRANCH   1  27
TORSDOF 11
ENDMDL
MODEL 3
REMARK VINA RESULT:      -9.5      2.903     12.130
REMARK  11 active torsions:
REMARK  status: ('A' for Active; 'I' for Inactive)
REMARK    1  A    between atoms: C_6  and  C_7 
REMARK    2  A    between atoms: C_7  and  O_8 
REMARK    3  A    between atoms: O_8  and  C_9 
REMARK       I    between atoms: C_9  and  N_10 
REMARK    4  A    between atoms: N_10  and  C_11 
REMARK    5  A    between atoms: C_11  and  C_12 
REMARK    6  A    between atoms: C_12  and  N_13 
REMARK       I    between atoms: N_13  and  C_14 
REMARK    7  A    between atoms: C_14  and  C_15 
REMARK    8  A    between atoms: C_18  and  C_19 
REMARK    9  A    between atoms: C_19  and  C_20 
REMARK   10  A    between atoms: C_42  and  O_43 
REMARK   11  A    between atoms: C_42  and  O_44 
ROOT
ATOM      1  C           0     134.508 133.147 141.125  0.00  0.00     0.208 C 
ENDROOT
BRANCH   1   2
ATOM      2  C           0     133.938 133.181 142.545  0.00  0.00     0.151 C 
ATOM      3  N           0     133.722 134.571 142.933  0.00  0.00    -0.218 N 
ATOM      4  C           0     134.829 135.371 143.154  0.00  0.00     0.672 C 
ATOM      5  H           0     132.824 134.926 143.035  0.00  0.00     0.178 HD
ATOM      6  N           0     134.801 136.661 142.970  0.00  0.00    -0.235 N 
ATOM      7  N           0     135.959 134.718 143.571  0.00  0.00    -0.183 N 
ATOM      8  H           0     133.985 137.091 142.670  0.00  0.00     0.174 HD
ATOM      9  H           0     135.595 137.193 143.138  0.00  0.00     0.174 HD
ATOM     10  C           0     136.069 133.305 143.938  0.00  0.00     0.217 C 
ATOM     11  C           0     137.326 135.259 143.691  0.00  0.00     0.150 C 
ATOM     12  C           0     134.896 132.457 143.472  0.00  0.00     0.180 C 
ATOM     13  C           0     137.400 132.828 143.332  0.00  0.00     0.209 C 
ATOM     14  N           0     136.097 133.142 145.401  0.00  0.00    -0.191 N 
ATOM     15  N           0     134.191 132.108 144.723  0.00  0.00    -0.216 N 
ATOM     16  C           0     135.066 132.312 145.762  0.00  0.00     0.670 C 
ATOM     17  H           0     133.277 131.793 144.797  0.00  0.00     0.178 HD
ATOM     18  N           0     134.931 131.783 146.946  0.00  0.00    -0.235 N 
ATOM     19  H           0     134.177 131.204 147.137  0.00  0.00     0.174 HD
ATOM     20  H           0     135.587 131.968 147.637  0.00  0.00     0.174 HD
ATOM     21  C           0     138.236 134.123 143.165  0.00  0.00     0.093 C 
ATOM     22  H           0     136.737 133.549 146.006  0.00  0.00     0.180 HD
BRANCH  13  23
ATOM     23  O           0     138.060 131.921 144.218  0.00  0.00    -0.362 OA
ATOM     24  H           0     138.143 131.081 143.747  0.00  0.00     0.213 HD
ENDBRANCH  13  23
BRANCH  13  25
ATOM     25  O           0     137.176 132.212 142.063  0.00  0.00    -0.362 OA
ATOM     26  H           0     137.177 131.256 142.213  0.00  0.00     0.213 HD
ENDBRANCH  13  25
ENDBRANCH   1   2
BRANCH   1  27
ATOM     27  O           0     133.479 133.544 140.181  0.00  0.00    -0.302 OA
BRANCH  27  28
ATOM     28  C           0     133.642 134.649 139.432  0.00  0.00     0.360 C 
ATOM     29  N           0     134.357 134.593 138.291  0.00  0.00    -0.335 N 
ATOM     30  H           0     134.755 133.753 138.009  0.00  0.00     0.164 HD
ATOM     31  O           0     133.144 135.701 139.784  0.00  0.00    -0.239 OA
BRANCH  29  32
ATOM     32  C           0     134.535 135.797 137.476  0.00  0.00     0.144 C 
BRANCH  32  33
ATOM     33  C           0     135.030 135.403 136.084  0.00  0.00     0.142 C 
BRANCH  33  34
ATOM     34  N           0     134.076 134.478 135.469  0.00  0.00    -0.355 N 
ATOM     35  C           0     133.232 134.916 134.513  0.00  0.00     0.251 C 
ATOM     36  O           0     133.263 136.079 134.163  0.00  0.00    -0.268 OA
ATOM     37  H           0     134.051 133.549 135.748  0.00  0.00     0.162 HD
BRANCH  35  38
ATOM     38  C           0     132.267 133.980 133.891  0.00  0.00     0.032 A 
ATOM     39  C           0     131.934 134.116 132.543  0.00  0.00     0.018 A 
ATOM     40  C           0     131.039 133.244 131.963  0.00  0.00     0.016 A 
ATOM     41  C           0     130.458 132.230 132.727  0.00  0.00     0.015 A 
ATOM     42  C           0     130.788 132.098 134.078  0.00  0.00     0.016 A 
ATOM     43  C           0     131.686 132.968 134.656  0.00  0.00     0.018 A 
BRANCH  41  44
ATOM     44  C           0     129.493 131.296 132.107  0.00  0.00     0.192 C 
ATOM     45  O           0     128.388 131.688 131.789  0.00  0.00    -0.287 OA
BRANCH  44  46
ATOM     46  C           0     129.873 129.888 131.875  0.00  0.00     0.015 A 
ATOM     47  C           0     128.990 128.858 132.210  0.00  0.00     0.015 A 
ATOM     48  C           0     129.349 127.546 131.985  0.00  0.00     0.001 A 
ATOM     49  C           0     130.585 127.247 131.440  0.00  0.00     0.000 A 
ATOM     50  C           0     131.468 128.261 131.112  0.00  0.00     0.001 A 
ATOM     51  C           0     131.120 129.578 131.326  0.00  0.00     0.015 A 
ENDBRANCH  44  46
ENDBRANCH  41  44
ENDBRANCH  35  38
ENDBRANCH  33  34
ENDBRANCH  32  33
ENDBRANCH  29  32
ENDBRANCH  27  28
ENDBRANCH   1  27
TORSDOF 11
ENDMDL
MODEL 4
REMARK VINA RESULT:      -9.4      2.252      3.215
REMARK  11 active torsions:
REMARK  status: ('A' for Active; 'I' for Inactive)
REMARK    1  A    between atoms: C_6  and  C_7 
REMARK    2  A    between atoms: C_7  and  O_8 
REMARK    3  A    between atoms: O_8  and  C_9 
REMARK       I    between atoms: C_9  and  N_10 
REMARK    4  A    between atoms: N_10  and  C_11 
REMARK    5  A    between atoms: C_11  and  C_12 
REMARK    6  A    between atoms: C_12  and  N_13 
REMARK       I    between atoms: N_13  and  C_14 
REMARK    7  A    between atoms: C_14  and  C_15 
REMARK    8  A    between atoms: C_18  and  C_19 
REMARK    9  A    between atoms: C_19  and  C_20 
REMARK   10  A    between atoms: C_42  and  O_43 
REMARK   11  A    between atoms: C_42  and  O_44 
ROOT
ATOM      1  C           0     130.599 134.189 134.228  0.00  0.00     0.208 C 
ENDROOT
BRANCH   1   2
ATOM      2  C           0     131.466 134.039 132.977  0.00  0.00     0.151 C 
ATOM      3  N           0     130.621 134.186 131.797  0.00  0.00    -0.218 N 
ATOM      4  C           0     129.707 133.187 131.515  0.00  0.00     0.672 C 
ATOM      5  H           0     130.698 134.965 131.222  0.00  0.00     0.178 HD
ATOM      6  N           0     128.595 133.422 130.876  0.00  0.00    -0.235 N 
ATOM      7  N           0     130.042 131.934 131.957  0.00  0.00    -0.183 N 
ATOM      8  H           0     128.387 134.323 130.581  0.00  0.00     0.174 HD
ATOM      9  H           0     127.977 132.697 130.692  0.00  0.00     0.174 HD
ATOM     10  C           0     131.313 131.529 132.559  0.00  0.00     0.217 C 
ATOM     11  C           0     129.195 130.727 131.987  0.00  0.00     0.150 C 
ATOM     12  C           0     132.168 132.695 133.029  0.00  0.00     0.180 C 
ATOM     13  C           0     130.936 130.589 133.717  0.00  0.00     0.209 C 
ATOM     14  N           0     132.153 130.812 131.585  0.00  0.00    -0.191 N 
ATOM     15  N           0     133.307 132.704 132.086  0.00  0.00    -0.216 N 
ATOM     16  C           0     133.351 131.473 131.478  0.00  0.00     0.670 C 
ATOM     17  H           0     133.911 133.445 131.925  0.00  0.00     0.178 HD
ATOM     18  N           0     134.402 130.992 130.875  0.00  0.00    -0.235 N 
ATOM     19  H           0     135.219 131.512 130.836  0.00  0.00     0.174 HD
ATOM     20  H           0     134.366 130.113 130.466  0.00  0.00     0.174 HD
ATOM     21  C           0     129.529 130.057 133.340  0.00  0.00     0.093 C 
ATOM     22  H           0     131.903 130.008 131.102  0.00  0.00     0.180 HD
BRANCH  13  23
ATOM     23  O           0     131.868 129.509 133.812  0.00  0.00    -0.362 OA
ATOM     24  H           0     131.570 128.828 133.195  0.00  0.00     0.213 HD
ENDBRANCH  13  23
BRANCH  13  25
ATOM     25  O           0     130.882 131.313 134.947  0.00  0.00    -0.362 OA
ATOM     26  H           0     130.205 130.888 135.491  0.00  0.00     0.213 HD
ENDBRANCH  13  25
ENDBRANCH   1   2
BRANCH   1  27
ATOM     27  O           0     131.227 135.124 135.144  0.00  0.00    -0.302 OA
BRANCH  27  28
ATOM     28  C           0     131.981 134.669 136.161  0.00  0.00     0.360 C 
ATOM     29  N           0     132.901 135.471 136.731  0.00  0.00    -0.335 N 
ATOM     30  H           0     133.019 136.379 136.409  0.00  0.00     0.164 HD
ATOM     31  O           0     131.834 133.532 136.564  0.00  0.00    -0.239 OA
BRANCH  29  32
ATOM     32  C           0     133.722 134.975 137.838  0.00  0.00     0.144 C 
BRANCH  32  33
ATOM     33  C           0     133.019 135.263 139.165  0.00  0.00     0.142 C 
BRANCH  33  34
ATOM     34  N           0     133.793 134.682 140.264  0.00  0.00    -0.355 N 
ATOM     35  C           0     133.230 133.764 141.074  0.00  0.00     0.251 C 
ATOM     36  O           0     132.078 133.420 140.893  0.00  0.00    -0.268 OA
ATOM     37  H           0     134.712 134.957 140.409  0.00  0.00     0.162 HD
BRANCH  35  38
ATOM     38  C           0     134.012 133.177 142.186  0.00  0.00     0.032 A 
ATOM     39  C           0     134.619 134.009 143.127  0.00  0.00     0.018 A 
ATOM     40  C           0     135.344 133.464 144.164  0.00  0.00     0.016 A 
ATOM     41  C           0     135.479 132.078 144.267  0.00  0.00     0.015 A 
ATOM     42  C           0     134.876 131.245 143.322  0.00  0.00     0.016 A 
ATOM     43  C           0     134.148 131.791 142.288  0.00  0.00     0.018 A 
BRANCH  41  44
ATOM     44  C           0     136.261 131.491 145.377  0.00  0.00     0.192 C 
ATOM     45  O           0     137.468 131.628 145.408  0.00  0.00    -0.287 OA
BRANCH  44  46
ATOM     46  C           0     135.576 130.738 146.447  0.00  0.00     0.015 A 
ATOM     47  C           0     135.177 129.416 146.231  0.00  0.00     0.015 A 
ATOM     48  C           0     134.543 128.718 147.237  0.00  0.00     0.001 A 
ATOM     49  C           0     134.289 129.327 148.453  0.00  0.00     0.000 A 
ATOM     50  C           0     134.675 130.637 148.672  0.00  0.00     0.001 A 
ATOM     51  C           0     135.316 131.347 147.677  0.00  0.00     0.015 A 
ENDBRANCH  44  46
ENDBRANCH  41  44
ENDBRANCH  35  38
ENDBRANCH  33  34
ENDBRANCH  32  33
ENDBRANCH  29  32
ENDBRANCH  27  28
ENDBRANCH   1  27
TORSDOF 11
ENDMDL
MODEL 5
REMARK VINA RESULT:      -9.4      3.518     13.218
REMARK  11 active torsions:
REMARK  status: ('A' for Active; 'I' for Inactive)
REMARK    1  A    between atoms: C_6  and  C_7 
REMARK    2  A    between atoms: C_7  and  O_8 
REMARK    3  A    between atoms: O_8  and  C_9 
REMARK       I    between atoms: C_9  and  N_10 
REMARK    4  A    between atoms: N_10  and  C_11 
REMARK    5  A    between atoms: C_11  and  C_12 
REMARK    6  A    between atoms: C_12  and  N_13 
REMARK       I    between atoms: N_13  and  C_14 
REMARK    7  A    between atoms: C_14  and  C_15 
REMARK    8  A    between atoms: C_18  and  C_19 
REMARK    9  A    between atoms: C_19  and  C_20 
REMARK   10  A    between atoms: C_42  and  O_43 
REMARK   11  A    between atoms: C_42  and  O_44 
ROOT
ATOM      1  C           0     136.659 131.833 143.629  0.00  0.00     0.208 C 
ENDROOT
BRANCH   1   2
ATOM      2  C           0     137.226 132.909 144.557  0.00  0.00     0.151 C 
ATOM      3  N           0     138.524 132.464 145.056  0.00  0.00    -0.218 N 
ATOM      4  C           0     138.558 131.407 145.948  0.00  0.00     0.672 C 
ATOM      5  H           0     139.343 132.900 144.770  0.00  0.00     0.178 HD
ATOM      6  N           0     139.581 130.604 146.035  0.00  0.00    -0.235 N 
ATOM      7  N           0     137.442 131.253 146.728  0.00  0.00    -0.183 N 
ATOM      8  H           0     140.354 130.740 145.464  0.00  0.00     0.174 HD
ATOM      9  H           0     139.573 129.875 146.674  0.00  0.00     0.174 HD
ATOM     10  C           0     136.300 132.165 146.812  0.00  0.00     0.217 C 
ATOM     11  C           0     137.103 130.122 147.611  0.00  0.00     0.150 C 
ATOM     12  C           0     136.230 133.167 145.671  0.00  0.00     0.180 C 
ATOM     13  C           0     135.057 131.260 146.861  0.00  0.00     0.209 C 
ATOM     14  N           0     136.370 132.985 148.033  0.00  0.00    -0.191 N 
ATOM     15  N           0     136.543 134.461 146.314  0.00  0.00    -0.216 N 
ATOM     16  C           0     136.355 134.307 147.666  0.00  0.00     0.670 C 
ATOM     17  H           0     136.830 135.269 145.863  0.00  0.00     0.178 HD
ATOM     18  N           0     136.184 135.297 148.498  0.00  0.00    -0.235 N 
ATOM     19  H           0     136.185 136.210 148.172  0.00  0.00     0.174 HD
ATOM     20  H           0     136.056 135.119 149.443  0.00  0.00     0.174 HD
ATOM     21  C           0     135.588 129.902 147.389  0.00  0.00     0.093 C 
ATOM     22  H           0     136.416 132.649 148.942  0.00  0.00     0.180 HD
BRANCH  13  23
ATOM     23  O           0     134.080 131.794 147.756  0.00  0.00    -0.362 OA
ATOM     24  H           0     133.690 132.562 147.317  0.00  0.00     0.213 HD
ENDBRANCH  13  23
BRANCH  13  25
ATOM     25  O           0     134.504 131.105 145.552  0.00  0.00    -0.362 OA
ATOM     26  H           0     135.000 131.697 144.969  0.00  0.00     0.213 HD
ENDBRANCH  13  25
ENDBRANCH   1   2
BRANCH   1  27
ATOM     27  O           0     136.352 132.421 142.337  0.00  0.00    -0.302 OA
BRANCH  27  28
ATOM     28  C           0     135.093 132.800 142.051  0.00  0.00     0.360 C 
ATOM     29  N           0     134.847 133.562 140.968  0.00  0.00    -0.335 N 
ATOM     30  H           0     135.579 133.838 140.393  0.00  0.00     0.164 HD
ATOM     31  O           0     134.176 132.455 142.771  0.00  0.00    -0.239 OA
BRANCH  29  32
ATOM     32  C           0     133.477 133.975 140.656  0.00  0.00     0.144 C 
BRANCH  32  33
ATOM     33  C           0     133.494 135.365 140.019  0.00  0.00     0.142 C 
BRANCH  33  34
ATOM     34  N           0     132.875 135.303 138.693  0.00  0.00    -0.355 N 
ATOM     35  C           0     133.640 135.121 137.599  0.00  0.00     0.251 C 
ATOM     36  O           0     134.845 135.010 137.713  0.00  0.00    -0.268 OA
ATOM     37  H           0     131.913 135.392 138.603  0.00  0.00     0.162 HD
BRANCH  35  38
ATOM     38  C           0     133.014 135.059 136.259  0.00  0.00     0.032 A 
ATOM     39  C           0     133.762 135.373 135.124  0.00  0.00     0.018 A 
ATOM     40  C           0     133.182 135.311 133.876  0.00  0.00     0.016 A 
ATOM     41  C           0     131.840 134.944 133.748  0.00  0.00     0.015 A 
ATOM     42  C           0     131.089 134.635 134.885  0.00  0.00     0.016 A 
ATOM     43  C           0     131.673 134.693 136.132  0.00  0.00     0.018 A 
BRANCH  41  44
ATOM     44  C           0     131.213 134.882 132.410  0.00  0.00     0.192 C 
ATOM     45  O           0     131.599 135.621 131.525  0.00  0.00    -0.287 OA
BRANCH  44  46
ATOM     46  C           0     130.120 133.925 132.149  0.00  0.00     0.015 A 
ATOM     47  C           0     130.405 132.572 131.948  0.00  0.00     0.015 A 
ATOM     48  C           0     129.378 131.682 131.711  0.00  0.00     0.001 A 
ATOM     49  C           0     128.069 132.129 131.659  0.00  0.00     0.000 A 
ATOM     50  C           0     127.780 133.469 131.850  0.00  0.00     0.001 A 
ATOM     51  C           0     128.797 134.369 132.094  0.00  0.00     0.015 A 
ENDBRANCH  44  46
ENDBRANCH  41  44
ENDBRANCH  35  38
ENDBRANCH  33  34
ENDBRANCH  32  33
ENDBRANCH  29  32
ENDBRANCH  27  28
ENDBRANCH   1  27
TORSDOF 11
ENDMDL
MODEL 6
REMARK VINA RESULT:      -9.4      3.291     11.902
REMARK  11 active torsions:
REMARK  status: ('A' for Active; 'I' for Inactive)
REMARK    1  A    between atoms: C_6  and  C_7 
REMARK    2  A    between atoms: C_7  and  O_8 
REMARK    3  A    between atoms: O_8  and  C_9 
REMARK       I    between atoms: C_9  and  N_10 
REMARK    4  A    between atoms: N_10  and  C_11 
REMARK    5  A    between atoms: C_11  and  C_12 
REMARK    6  A    between atoms: C_12  and  N_13 
REMARK       I    between atoms: N_13  and  C_14 
REMARK    7  A    between atoms: C_14  and  C_15 
REMARK    8  A    between atoms: C_18  and  C_19 
REMARK    9  A    between atoms: C_19  and  C_20 
REMARK   10  A    between atoms: C_42  and  O_43 
REMARK   11  A    between atoms: C_42  and  O_44 
ROOT
ATOM      1  C           0     134.575 133.151 141.160  0.00  0.00     0.208 C 
ENDROOT
BRANCH   1   2
ATOM      2  C           0     134.002 133.180 142.579  0.00  0.00     0.151 C 
ATOM      3  N           0     133.779 134.568 142.969  0.00  0.00    -0.218 N 
ATOM      4  C           0     134.882 135.373 143.194  0.00  0.00     0.672 C 
ATOM      5  H           0     132.879 134.919 143.070  0.00  0.00     0.178 HD
ATOM      6  N           0     134.849 136.663 143.013  0.00  0.00    -0.235 N 
ATOM      7  N           0     136.014 134.724 143.612  0.00  0.00    -0.183 N 
ATOM      8  H           0     134.031 137.090 142.712  0.00  0.00     0.174 HD
ATOM      9  H           0     135.640 137.198 143.183  0.00  0.00     0.174 HD
ATOM     10  C           0     136.130 133.311 143.976  0.00  0.00     0.217 C 
ATOM     11  C           0     137.378 135.271 143.736  0.00  0.00     0.150 C 
ATOM     12  C           0     134.961 132.459 143.506  0.00  0.00     0.180 C 
ATOM     13  C           0     137.464 132.841 143.373  0.00  0.00     0.209 C 
ATOM     14  N           0     136.155 133.145 145.440  0.00  0.00    -0.191 N 
ATOM     15  N           0     134.255 132.103 144.755  0.00  0.00    -0.216 N 
ATOM     16  C           0     135.126 132.310 145.797  0.00  0.00     0.670 C 
ATOM     17  H           0     133.342 131.784 144.826  0.00  0.00     0.178 HD
ATOM     18  N           0     134.992 131.777 146.979  0.00  0.00    -0.235 N 
ATOM     19  H           0     134.240 131.195 147.167  0.00  0.00     0.174 HD
ATOM     20  H           0     135.645 131.964 147.672  0.00  0.00     0.174 HD
ATOM     21  C           0     138.294 134.140 143.211  0.00  0.00     0.093 C 
ATOM     22  H           0     136.792 133.553 146.047  0.00  0.00     0.180 HD
BRANCH  13  23
ATOM     23  O           0     138.126 131.935 144.259  0.00  0.00    -0.362 OA
ATOM     24  H           0     137.739 131.063 144.106  0.00  0.00     0.213 HD
ENDBRANCH  13  23
BRANCH  13  25
ATOM     25  O           0     137.245 132.226 142.102  0.00  0.00    -0.362 OA
ATOM     26  H           0     138.114 131.969 141.764  0.00  0.00     0.213 HD
ENDBRANCH  13  25
ENDBRANCH   1   2
BRANCH   1  27
ATOM     27  O           0     133.534 133.499 140.210  0.00  0.00    -0.302 OA
BRANCH  27  28
ATOM     28  C           0     133.641 134.618 139.472  0.00  0.00     0.360 C 
ATOM     29  N           0     134.202 134.569 138.247  0.00  0.00    -0.335 N 
ATOM     30  H           0     134.529 133.724 137.898  0.00  0.00     0.164 HD
ATOM     31  O           0     133.233 135.676 139.909  0.00  0.00    -0.239 OA
BRANCH  29  32
ATOM     32  C           0     134.319 135.788 137.444  0.00  0.00     0.144 C 
BRANCH  32  33
ATOM     33  C           0     135.147 135.496 136.192  0.00  0.00     0.142 C 
BRANCH  33  34
ATOM     34  N           0     134.673 134.259 135.569  0.00  0.00    -0.355 N 
ATOM     35  C           0     134.496 134.200 134.234  0.00  0.00     0.251 C 
ATOM     36  O           0     134.728 135.175 133.547  0.00  0.00    -0.268 OA
ATOM     37  H           0     134.487 133.480 136.117  0.00  0.00     0.162 HD
BRANCH  35  38
ATOM     38  C           0     134.016 132.949 133.604  0.00  0.00     0.032 A 
ATOM     39  C           0     132.937 132.982 132.720  0.00  0.00     0.018 A 
ATOM     40  C           0     132.492 131.819 132.131  0.00  0.00     0.016 A 
ATOM     41  C           0     133.115 130.605 132.427  0.00  0.00     0.015 A 
ATOM     42  C           0     134.191 130.571 133.316  0.00  0.00     0.016 A 
ATOM     43  C           0     134.638 131.735 133.901  0.00  0.00     0.018 A 
BRANCH  41  44
ATOM     44  C           0     132.635 129.354 131.799  0.00  0.00     0.192 C 
ATOM     45  O           0     131.513 129.300 131.336  0.00  0.00    -0.287 OA
BRANCH  44  46
ATOM     46  C           0     133.519 128.173 131.735  0.00  0.00     0.015 A 
ATOM     47  C           0     133.222 127.033 132.486  0.00  0.00     0.015 A 
ATOM     48  C           0     134.049 125.931 132.417  0.00  0.00     0.001 A 
ATOM     49  C           0     135.177 125.958 131.617  0.00  0.00     0.000 A 
ATOM     50  C           0     135.482 127.086 130.876  0.00  0.00     0.001 A 
ATOM     51  C           0     134.661 128.193 130.931  0.00  0.00     0.015 A 
ENDBRANCH  44  46
ENDBRANCH  41  44
ENDBRANCH  35  38
ENDBRANCH  33  34
ENDBRANCH  32  33
ENDBRANCH  29  32
ENDBRANCH  27  28
ENDBRANCH   1  27
TORSDOF 11
ENDMDL
MODEL 7
REMARK VINA RESULT:      -9.0      1.820      2.757
REMARK  11 active torsions:
REMARK  status: ('A' for Active; 'I' for Inactive)
REMARK    1  A    between atoms: C_6  and  C_7 
REMARK    2  A    between atoms: C_7  and  O_8 
REMARK    3  A    between atoms: O_8  and  C_9 
REMARK       I    between atoms: C_9  and  N_10 
REMARK    4  A    between atoms: N_10  and  C_11 
REMARK    5  A    between atoms: C_11  and  C_12 
REMARK    6  A    between atoms: C_12  and  N_13 
REMARK       I    between atoms: N_13  and  C_14 
REMARK    7  A    between atoms: C_14  and  C_15 
REMARK    8  A    between atoms: C_18  and  C_19 
REMARK    9  A    between atoms: C_19  and  C_20 
REMARK   10  A    between atoms: C_42  and  O_43 
REMARK   11  A    between atoms: C_42  and  O_44 
ROOT
ATOM      1  C           0     133.439 134.866 134.695  0.00  0.00     0.208 C 
ENDROOT
BRANCH   1   2
ATOM      2  C           0     133.157 133.387 134.423  0.00  0.00     0.151 C 
ATOM      3  N           0     133.808 133.005 133.174  0.00  0.00    -0.218 N 
ATOM      4  C           0     133.306 133.514 131.990  0.00  0.00     0.672 C 
ATOM      5  H           0     134.573 132.407 133.173  0.00  0.00     0.178 HD
ATOM      6  N           0     134.056 133.699 130.940  0.00  0.00    -0.235 N 
ATOM      7  N           0     131.970 133.818 131.993  0.00  0.00    -0.183 N 
ATOM      8  H           0     135.000 133.477 130.973  0.00  0.00     0.174 HD
ATOM      9  H           0     133.671 134.056 130.124  0.00  0.00     0.174 HD
ATOM     10  C           0     131.009 133.529 133.059  0.00  0.00     0.217 C 
ATOM     11  C           0     131.205 134.552 130.968  0.00  0.00     0.150 C 
ATOM     12  C           0     131.656 133.175 134.389  0.00  0.00     0.180 C 
ATOM     13  C           0     130.124 134.783 133.164  0.00  0.00     0.209 C 
ATOM     14  N           0     130.181 132.359 132.718  0.00  0.00    -0.191 N 
ATOM     15  N           0     131.363 131.736 134.556  0.00  0.00    -0.216 N 
ATOM     16  C           0     130.326 131.424 133.712  0.00  0.00     0.670 C 
ATOM     17  H           0     131.822 131.124 135.151  0.00  0.00     0.178 HD
ATOM     18  N           0     129.571 130.368 133.840  0.00  0.00    -0.235 N 
ATOM     19  H           0     129.727 129.746 134.566  0.00  0.00     0.174 HD
ATOM     20  H           0     128.852 130.207 133.208  0.00  0.00     0.174 HD
ATOM     21  C           0     130.255 135.465 131.778  0.00  0.00     0.093 C 
ATOM     22  H           0     129.627 132.267 131.927  0.00  0.00     0.180 HD
BRANCH  13  23
ATOM     23  O           0     128.765 134.420 133.416  0.00  0.00    -0.362 OA
ATOM     24  H           0     128.780 133.541 133.816  0.00  0.00     0.213 HD
ENDBRANCH  13  23
BRANCH  13  25
ATOM     25  O           0     130.610 135.647 134.193  0.00  0.00    -0.362 OA
ATOM     26  H           0     130.088 136.460 134.142  0.00  0.00     0.213 HD
ENDBRANCH  13  25
ENDBRANCH   1   2
BRANCH   1  27
ATOM     27  O           0     132.719 135.287 135.883  0.00  0.00    -0.302 OA
BRANCH  27  28
ATOM     28  C           0     133.330 135.275 137.082  0.00  0.00     0.360 C 
ATOM     29  N           0     132.604 135.385 138.211  0.00  0.00    -0.335 N 
ATOM     30  H           0     131.638 135.470 138.160  0.00  0.00     0.164 HD
ATOM     31  O           0     134.539 135.168 137.146  0.00  0.00    -0.239 OA
BRANCH  29  32
ATOM     32  C           0     133.269 135.372 139.516  0.00  0.00     0.144 C 
BRANCH  32  33
ATOM     33  C           0     133.045 134.019 140.191  0.00  0.00     0.142 C 
BRANCH  33  34
ATOM     34  N           0     133.852 133.941 141.411  0.00  0.00    -0.355 N 
ATOM     35  C           0     133.862 132.810 142.143  0.00  0.00     0.251 C 
ATOM     36  O           0     133.199 131.854 141.791  0.00  0.00    -0.268 OA
ATOM     37  H           0     134.381 134.705 141.692  0.00  0.00     0.162 HD
BRANCH  35  38
ATOM     38  C           0     134.677 132.732 143.376  0.00  0.00     0.032 A 
ATOM     39  C           0     135.072 133.902 144.026  0.00  0.00     0.018 A 
ATOM     40  C           0     135.827 133.830 145.176  0.00  0.00     0.016 A 
ATOM     41  C           0     136.207 132.587 145.685  0.00  0.00     0.015 A 
ATOM     42  C           0     135.817 131.416 145.031  0.00  0.00     0.016 A 
ATOM     43  C           0     135.058 131.488 143.884  0.00  0.00     0.018 A 
BRANCH  41  44
ATOM     44  C           0     137.022 132.508 146.917  0.00  0.00     0.192 C 
ATOM     45  O           0     136.552 132.865 147.979  0.00  0.00    -0.287 OA
BRANCH  44  46
ATOM     46  C           0     138.406 131.997 146.856  0.00  0.00     0.015 A 
ATOM     47  C           0     138.815 130.971 147.711  0.00  0.00     0.015 A 
ATOM     48  C           0     140.107 130.495 147.644  0.00  0.00     0.001 A 
ATOM     49  C           0     141.003 131.040 146.741  0.00  0.00     0.000 A 
ATOM     50  C           0     140.607 132.061 145.895  0.00  0.00     0.001 A 
ATOM     51  C           0     139.316 132.544 145.947  0.00  0.00     0.015 A 
ENDBRANCH  44  46
ENDBRANCH  41  44
ENDBRANCH  35  38
ENDBRANCH  33  34
ENDBRANCH  32  33
ENDBRANCH  29  32
ENDBRANCH  27  28
ENDBRANCH   1  27
TORSDOF 11
ENDMDL
MODEL 8
REMARK VINA RESULT:      -8.8      3.616     13.277
REMARK  11 active torsions:
REMARK  status: ('A' for Active; 'I' for Inactive)
REMARK    1  A    between atoms: C_6  and  C_7 
REMARK    2  A    between atoms: C_7  and  O_8 
REMARK    3  A    between atoms: O_8  and  C_9 
REMARK       I    between atoms: C_9  and  N_10 
REMARK    4  A    between atoms: N_10  and  C_11 
REMARK    5  A    between atoms: C_11  and  C_12 
REMARK    6  A    between atoms: C_12  and  N_13 
REMARK       I    between atoms: N_13  and  C_14 
REMARK    7  A    between atoms: C_14  and  C_15 
REMARK    8  A    between atoms: C_18  and  C_19 
REMARK    9  A    between atoms: C_19  and  C_20 
REMARK   10  A    between atoms: C_42  and  O_43 
REMARK   11  A    between atoms: C_42  and  O_44 
ROOT
ATOM      1  C           0     136.080 133.435 144.190  0.00  0.00     0.208 C 
ENDROOT
BRANCH   1   2
ATOM      2  C           0     135.300 132.643 145.240  0.00  0.00     0.151 C 
ATOM      3  N           0     135.071 133.498 146.401  0.00  0.00    -0.218 N 
ATOM      4  C           0     136.156 133.841 147.189  0.00  0.00     0.672 C 
ATOM      5  H           0     134.180 133.818 146.616  0.00  0.00     0.178 HD
ATOM      6  N           0     136.198 134.953 147.867  0.00  0.00    -0.235 N 
ATOM      7  N           0     137.186 132.938 147.204  0.00  0.00    -0.183 N 
ATOM      8  H           0     135.451 135.572 147.830  0.00  0.00     0.174 HD
ATOM      9  H           0     136.973 135.160 148.412  0.00  0.00     0.174 HD
ATOM     10  C           0     137.194 131.607 146.596  0.00  0.00     0.217 C 
ATOM     11  C           0     138.535 133.112 147.775  0.00  0.00     0.150 C 
ATOM     12  C           0     136.080 131.389 145.584  0.00  0.00     0.180 C 
ATOM     13  C           0     138.586 131.454 145.960  0.00  0.00     0.209 C 
ATOM     14  N           0     136.991 130.562 147.613  0.00  0.00    -0.191 N 
ATOM     15  N           0     135.180 130.423 146.248  0.00  0.00    -0.216 N 
ATOM     16  C           0     135.890 129.823 147.260  0.00  0.00     0.670 C 
ATOM     17  H           0     134.256 130.246 146.013  0.00  0.00     0.178 HD
ATOM     18  N           0     135.558 128.691 147.815  0.00  0.00    -0.235 N 
ATOM     19  H           0     134.765 128.219 147.517  0.00  0.00     0.174 HD
ATOM     20  H           0     136.105 128.321 148.526  0.00  0.00     0.174 HD
ATOM     21  C           0     139.478 132.455 146.740  0.00  0.00     0.093 C 
ATOM     22  H           0     137.542 130.419 148.398  0.00  0.00     0.180 HD
BRANCH  13  23
ATOM     23  O           0     139.072 130.121 146.126  0.00  0.00    -0.362 OA
ATOM     24  H           0     139.620 130.120 146.921  0.00  0.00     0.213 HD
ENDBRANCH  13  23
BRANCH  13  25
ATOM     25  O           0     138.541 131.802 144.575  0.00  0.00    -0.362 OA
ATOM     26  H           0     138.705 130.988 144.079  0.00  0.00     0.213 HD
ENDBRANCH  13  25
ENDBRANCH   1   2
BRANCH   1  27
ATOM     27  O           0     136.021 132.741 142.916  0.00  0.00    -0.302 OA
BRANCH  27  28
ATOM     28  C           0     134.920 132.835 142.148  0.00  0.00     0.360 C 
ATOM     29  N           0     134.710 133.937 141.401  0.00  0.00    -0.335 N 
ATOM     30  H           0     135.354 134.663 141.417  0.00  0.00     0.164 HD
ATOM     31  O           0     134.114 131.926 142.128  0.00  0.00    -0.239 OA
BRANCH  29  32
ATOM     32  C           0     133.512 134.039 140.565  0.00  0.00     0.144 C 
BRANCH  32  33
ATOM     33  C           0     133.454 135.426 139.924  0.00  0.00     0.142 C 
BRANCH  33  34
ATOM     34  N           0     132.851 135.325 138.593  0.00  0.00    -0.355 N 
ATOM     35  C           0     133.634 135.153 137.509  0.00  0.00     0.251 C 
ATOM     36  O           0     134.840 135.085 137.637  0.00  0.00    -0.268 OA
ATOM     37  H           0     131.888 135.380 138.491  0.00  0.00     0.162 HD
BRANCH  35  38
ATOM     38  C           0     133.024 135.051 136.163  0.00  0.00     0.032 A 
ATOM     39  C           0     131.667 134.756 136.033  0.00  0.00     0.018 A 
ATOM     40  C           0     131.098 134.665 134.782  0.00  0.00     0.016 A 
ATOM     41  C           0     131.883 134.859 133.643  0.00  0.00     0.015 A 
ATOM     42  C           0     133.243 135.149 133.774  0.00  0.00     0.016 A 
ATOM     43  C           0     133.809 135.244 135.025  0.00  0.00     0.018 A 
BRANCH  41  44
ATOM     44  C           0     131.274 134.756 132.299  0.00  0.00     0.192 C 
ATOM     45  O           0     131.709 135.427 131.383  0.00  0.00    -0.287 OA
BRANCH  44  46
ATOM     46  C           0     130.139 133.840 132.069  0.00  0.00     0.015 A 
ATOM     47  C           0     130.352 132.460 132.009  0.00  0.00     0.015 A 
ATOM     48  C           0     129.286 131.610 131.800  0.00  0.00     0.001 A 
ATOM     49  C           0     128.010 132.122 131.638  0.00  0.00     0.000 A 
ATOM     50  C           0     127.793 133.487 131.690  0.00  0.00     0.001 A 
ATOM     51  C           0     128.849 134.349 131.903  0.00  0.00     0.015 A 
ENDBRANCH  44  46
ENDBRANCH  41  44
ENDBRANCH  35  38
ENDBRANCH  33  34
ENDBRANCH  32  33
ENDBRANCH  29  32
ENDBRANCH  27  28
ENDBRANCH   1  27
TORSDOF 11
ENDMDL
MODEL 9
REMARK VINA RESULT:      -8.7      2.469      4.168
REMARK  11 active torsions:
REMARK  status: ('A' for Active; 'I' for Inactive)
REMARK    1  A    between atoms: C_6  and  C_7 
REMARK    2  A    between atoms: C_7  and  O_8 
REMARK    3  A    between atoms: O_8  and  C_9 
REMARK       I    between atoms: C_9  and  N_10 
REMARK    4  A    between atoms: N_10  and  C_11 
REMARK    5  A    between atoms: C_11  and  C_12 
REMARK    6  A    between atoms: C_12  and  N_13 
REMARK       I    between atoms: N_13  and  C_14 
REMARK    7  A    between atoms: C_14  and  C_15 
REMARK    8  A    between atoms: C_18  and  C_19 
REMARK    9  A    between atoms: C_19  and  C_20 
REMARK   10  A    between atoms: C_42  and  O_43 
REMARK   11  A    between atoms: C_42  and  O_44 
ROOT
ATOM      1  C           0     130.619 133.872 133.994  0.00  0.00     0.208 C 
ENDROOT
BRANCH   1   2
ATOM      2  C           0     131.084 134.850 135.074  0.00  0.00     0.151 C 
ATOM      3  N           0     131.161 136.188 134.497  0.00  0.00    -0.218 N 
ATOM      4  C           0     132.153 136.446 133.567  0.00  0.00     0.672 C 
ATOM      5  H           0     130.533 136.880 134.759  0.00  0.00     0.178 HD
ATOM      6  N           0     132.011 137.343 132.631  0.00  0.00    -0.235 N 
ATOM      7  N           0     133.292 135.694 133.690  0.00  0.00    -0.183 N 
ATOM      8  H           0     131.189 137.855 132.570  0.00  0.00     0.174 HD
ATOM      9  H           0     132.728 137.500 131.997  0.00  0.00     0.174 HD
ATOM     10  C           0     133.614 134.764 134.773  0.00  0.00     0.217 C 
ATOM     11  C           0     134.420 135.598 132.745  0.00  0.00     0.150 C 
ATOM     12  C           0     132.415 134.373 135.623  0.00  0.00     0.180 C 
ATOM     13  C           0     134.256 133.545 134.088  0.00  0.00     0.209 C 
ATOM     14  N           0     134.569 135.367 135.718  0.00  0.00    -0.191 N 
ATOM     15  N           0     132.670 135.032 136.922  0.00  0.00    -0.216 N 
ATOM     16  C           0     134.006 135.349 136.970  0.00  0.00     0.670 C 
ATOM     17  H           0     132.013 135.210 137.612  0.00  0.00     0.178 HD
ATOM     18  N           0     134.658 135.602 138.070  0.00  0.00    -0.235 N 
ATOM     19  H           0     134.200 135.572 138.924  0.00  0.00     0.174 HD
ATOM     20  H           0     135.603 135.818 138.034  0.00  0.00     0.174 HD
ATOM     21  C           0     134.789 134.096 132.740  0.00  0.00     0.093 C 
ATOM     22  H           0     135.446 135.715 135.495  0.00  0.00     0.180 HD
BRANCH  13  23
ATOM     23  O           0     135.331 133.032 134.877  0.00  0.00    -0.362 OA
ATOM     24  H           0     135.243 133.423 135.757  0.00  0.00     0.213 HD
ENDBRANCH  13  23
BRANCH  13  25
ATOM     25  O           0     133.275 132.531 133.860  0.00  0.00    -0.362 OA
ATOM     26  H           0     132.419 132.914 134.095  0.00  0.00     0.213 HD
ENDBRANCH  13  25
ENDBRANCH   1   2
BRANCH   1  27
ATOM     27  O           0     130.041 132.696 134.620  0.00  0.00    -0.302 OA
BRANCH  27  28
ATOM     28  C           0     130.588 132.193 135.742  0.00  0.00     0.360 C 
ATOM     29  N           0     130.055 132.486 136.944  0.00  0.00    -0.335 N 
ATOM     30  H           0     129.275 133.060 137.001  0.00  0.00     0.164 HD
ATOM     31  O           0     131.565 131.473 135.670  0.00  0.00    -0.239 OA
BRANCH  29  32
ATOM     32  C           0     130.651 131.938 138.164  0.00  0.00     0.144 C 
BRANCH  32  33
ATOM     33  C           0     130.743 133.035 139.225  0.00  0.00     0.142 C 
BRANCH  33  34
ATOM     34  N           0     131.695 132.633 140.263  0.00  0.00    -0.355 N 
ATOM     35  C           0     132.657 133.488 140.664  0.00  0.00     0.251 C 
ATOM     36  O           0     132.735 134.592 140.163  0.00  0.00    -0.268 OA
ATOM     37  H           0     131.633 131.751 140.663  0.00  0.00     0.162 HD
BRANCH  35  38
ATOM     38  C           0     133.619 133.081 141.713  0.00  0.00     0.032 A 
ATOM     39  C           0     134.351 134.049 142.402  0.00  0.00     0.018 A 
ATOM     40  C           0     135.243 133.672 143.381  0.00  0.00     0.016 A 
ATOM     41  C           0     135.424 132.319 143.676  0.00  0.00     0.015 A 
ATOM     42  C           0     134.696 131.349 142.982  0.00  0.00     0.016 A 
ATOM     43  C           0     133.800 131.728 142.007  0.00  0.00     0.018 A 
BRANCH  41  44
ATOM     44  C           0     136.386 131.911 144.724  0.00  0.00     0.192 C 
ATOM     45  O           0     137.571 131.841 144.464  0.00  0.00    -0.287 OA
BRANCH  44  46
ATOM     46  C           0     135.907 131.591 146.083  0.00  0.00     0.015 A 
ATOM     47  C           0     135.654 130.265 146.444  0.00  0.00     0.015 A 
ATOM     48  C           0     135.212 129.973 147.717  0.00  0.00     0.001 A 
ATOM     49  C           0     135.007 130.990 148.633  0.00  0.00     0.000 A 
ATOM     50  C           0     135.248 132.306 148.280  0.00  0.00     0.001 A 
ATOM     51  C           0     135.696 132.613 147.012  0.00  0.00     0.015 A 
ENDBRANCH  44  46
ENDBRANCH  41  44
ENDBRANCH  35  38
ENDBRANCH  33  34
ENDBRANCH  32  33
ENDBRANCH  29  32
ENDBRANCH  27  28
ENDBRANCH   1  27
TORSDOF 11
ENDMDL
