# created with PyMOL 2.3.4
@<TRIPOS>MOLECULE
ligand_out_0001
32 34 1                 
SMALL
USER_CHARGES
@<TRIPOS>ATOM
1	   N	135.650	132.670	147.107	N.3	1	UNK0	-0.235	
2	   N	136.916	134.404	146.145	N.3	1	UNK0	-0.218	
3	   N	136.308	136.101	143.648	N.3	1	UNK0	-0.216	
4	   N	134.330	136.832	142.573	N.3	1	UNK0	-0.235	
5	   N	134.691	134.575	143.180	N.3	1	UNK0	-0.191	
6	   N	135.609	133.025	144.794	N.3	1	UNK0	-0.183	
7	   C	136.039	133.338	146.057	C.3	1	UNK0	0.672	
8	   C	137.773	134.693	144.998	C.3	1	UNK0	0.151	
9	   C	136.997	134.794	143.700	C.3	1	UNK0	0.180	
10	   C	135.065	135.894	143.101	C.3	1	UNK0	0.670	
11	   C	135.869	133.782	143.569	C.3	1	UNK0	0.217	
12	   C	134.847	131.839	144.365	C.3	1	UNK0	0.150	
13	   C	135.493	131.434	143.018	C.3	1	UNK0	0.093	
14	   C	136.168	132.726	142.491	C.3	1	UNK0	0.209	
15	   C	138.811	133.576	144.864	C.2	1	UNK0	0.206	
16	   C	139.775	133.171	147.048	C.2	1	UNK0	0.262	
17	   C	140.571	133.699	148.213	C.3	1	UNK0	0.077	
18	   C	140.174	135.151	148.486	C.3	1	UNK0	0.020	
19	   C	140.284	132.851	149.454	C.3	1	UNK0	0.020	
20	   O	139.860	133.771	145.849	O.2	1	UNK0	-0.319	
21	   O	139.060	132.207	147.191	O.co2	1	UNK0	-0.265	
22	   O	135.599	133.110	141.238	O.2	1	UNK0	-0.362	
23	   O	137.579	132.534	142.362	O.2	1	UNK0	-0.362	
24	   H	135.977	132.917	147.986	 H	1	UNK0	0.174	
25	   H	135.031	131.930	147.009	 H	1	UNK0	0.174	
26	   H	134.654	137.745	142.549	 H	1	UNK0	0.174	
27	   H	133.459	136.617	142.203	 H	1	UNK0	0.174	
28	   H	136.960	134.947	146.948	 H	1	UNK0	0.178	
29	   H	136.667	136.951	143.945	 H	1	UNK0	0.178	
30	   H	133.804	134.224	143.005	 H	1	UNK0	0.180	
31	   H	134.925	132.451	141.024	 H	1	UNK0	0.213	
32	   H	137.992	133.397	142.504	 H	1	UNK0	0.213	
@<TRIPOS>BOND
1 1 7 1
2 1 24 1
3 1 25 1
4 2 8 1
5 2 28 1
6 3 10 1
7 3 29 1
8 4 26 1
9 4 27 1
10 5 30 1
11 6 12 1
12 2 7 1
13 6 7 1
14 8 9 1
15 8 15 1
16 3 9 1
17 9 11 1
18 4 10 1
19 5 10 1
20 5 11 1
21 6 11 1
22 11 14 1
23 12 13 1
24 13 14 1
25 14 22 2
26 14 23 2
27 15 20 2
28 16 17 1
29 16 21 2
30 17 18 1
31 17 19 1
32 16 20 2
33 22 31 1
34 23 32 1
@<TRIPOS>SUBSTRUCTURE
1	UNK0	1	GROUP	1 ****	UNK
