# created with PyMOL 2.3.4
@<TRIPOS>MOLECULE
ligand_out_0001
54 57 1                 
SMALL
USER_CHARGES
@<TRIPOS>ATOM
1	   N	131.386	126.566	132.625	N.3	1	UNK0	-0.066	
2	   N	132.375	126.031	132.645	N.3	1	UNK0	-0.162	
3	   N	133.363	125.497	132.664	N.3	1	UNK0	0.068	
4	   N	131.696	132.932	132.499	N.pl3	1	UNK0	-0.357	
5	   N	133.749	135.632	138.459	N.pl3	1	UNK0	-0.337	
6	   N	135.418	135.478	143.200	N.3	1	UNK0	-0.218	
7	   N	137.709	135.004	142.949	N.3	1	UNK0	-0.235	
8	   N	136.250	133.384	143.799	N.3	1	UNK0	-0.183	
9	   N	135.024	132.884	145.825	N.3	1	UNK0	-0.191	
10	   N	133.432	134.417	145.303	N.3	1	UNK0	-0.216	
11	   N	133.615	133.688	147.545	N.3	1	UNK0	-0.235	
12	   C	131.234	130.640	133.214	C.3	1	UNK0	0.115	
13	   C	130.043	129.937	132.991	C.3	1	UNK0	0.176	
14	   C	130.056	128.586	132.793	C.3	1	UNK0	0.190	
15	   C	131.337	127.873	132.814	C.3	1	UNK0	0.176	
16	   C	132.564	128.641	133.051	C.3	1	UNK0	0.190	
17	   C	132.477	129.991	133.236	C.3	1	UNK0	0.176	
18	   C	131.180	132.098	133.424	C.2	1	UNK0	0.258	
19	   C	131.643	134.381	132.708	C.3	1	UNK0	0.123	
20	   C	133.046	134.902	133.027	C.3	1	UNK0	0.020	
21	   C	133.257	134.903	134.542	C.3	1	UNK0	0.002	
22	   C	134.746	135.067	134.850	C.3	1	UNK0	0.002	
23	   C	134.940	135.243	136.358	C.3	1	UNK0	0.020	
24	   C	133.573	135.291	137.045	C.3	1	UNK0	0.125	
25	   C	133.170	134.876	139.412	C.2	1	UNK0	0.360	
26	   C	134.036	134.280	141.596	C.2	1	UNK0	0.208	
27	   C	134.100	134.882	143.001	C.3	1	UNK0	0.151	
28	   C	136.510	134.635	143.304	C.3	1	UNK0	0.672	
29	   C	134.981	132.909	144.353	C.3	1	UNK0	0.217	
30	   C	137.152	132.219	143.838	C.3	1	UNK0	0.150	
31	   C	133.792	133.794	144.012	C.3	1	UNK0	0.180	
32	   C	134.808	131.480	143.811	C.3	1	UNK0	0.209	
33	   C	134.001	133.664	146.300	C.3	1	UNK0	0.670	
34	   C	136.247	131.021	143.466	C.3	1	UNK0	0.093	
35	   O	130.670	132.549	134.431	O.2	1	UNK0	-0.267	
36	   O	132.502	133.910	139.099	O.co2	1	UNK0	-0.239	
37	   O	133.331	135.190	140.710	O.2	1	UNK0	-0.302	
38	   O	134.238	130.628	144.807	O.2	1	UNK0	-0.362	
39	   O	133.993	131.490	142.637	O.2	1	UNK0	-0.362	
40	   F	128.868	130.603	132.973	 F	1	UNK0	-0.202	
41	   F	128.903	127.915	132.576	 F	1	UNK0	-0.200	
42	   F	133.765	128.024	133.079	 F	1	UNK0	-0.200	
43	   F	133.600	130.709	133.454	 F	1	UNK0	-0.202	
44	   H	132.104	132.572	131.695	 H	1	UNK0	0.162	
45	   H	134.283	136.403	138.709	 H	1	UNK0	0.164	
46	   H	135.526	136.440	143.257	 H	1	UNK0	0.178	
47	   H	137.857	135.896	142.598	 H	1	UNK0	0.174	
48	   H	138.453	134.388	143.039	 H	1	UNK0	0.174	
49	   H	132.893	135.215	145.424	 H	1	UNK0	0.178	
50	   H	132.883	134.263	147.816	 H	1	UNK0	0.174	
51	   H	134.061	133.128	148.201	 H	1	UNK0	0.174	
52	   H	135.665	132.396	146.366	 H	1	UNK0	0.180	
53	   H	133.549	131.141	145.252	 H	1	UNK0	0.213	
54	   H	134.288	132.237	142.098	 H	1	UNK0	0.213	
@<TRIPOS>BOND
1 1 2 1
2 2 3 1
3 4 19 1
4 4 44 1
5 5 25 1
6 5 45 1
7 6 28 1
8 6 46 1
9 7 47 1
10 7 48 1
11 8 29 1
12 8 30 1
13 9 33 1
14 9 52 1
15 10 33 1
16 10 49 1
17 11 50 1
18 11 51 1
19 12 13 1
20 12 17 1
21 12 18 1
22 13 14 1
23 13 40 1
24 14 15 1
25 14 41 1
26 1 15 1
27 15 16 1
28 16 17 1
29 16 42 1
30 17 43 1
31 4 18 1
32 18 35 2
33 19 20 1
34 20 21 1
35 21 22 1
36 22 23 1
37 23 24 1
38 5 24 1
39 25 36 2
40 25 37 2
41 26 27 1
42 6 27 1
43 27 31 1
44 7 28 1
45 8 28 1
46 9 29 1
47 29 31 1
48 29 32 1
49 30 34 1
50 10 31 1
51 32 34 1
52 32 38 2
53 32 39 2
54 11 33 1
55 26 37 2
56 38 53 1
57 39 54 1
@<TRIPOS>SUBSTRUCTURE
1	UNK0	1	GROUP	1 ****	UNK
