# created with PyMOL 2.3.4
@<TRIPOS>MOLECULE
ligand_out_0001
62 66 1                 
SMALL
USER_CHARGES
@<TRIPOS>ATOM
1	   N	133.810	134.654	140.341	N.pl3	1	UNK0	-0.337	
2	   N	138.071	133.803	144.790	N.pl3	1	UNK0	-0.360	
3	   N	138.040	133.385	147.450	N.pl3	1	UNK0	-0.348	
4	   N	130.254	134.981	150.622	N.3	1	UNK0	-0.382	
5	   N	131.482	135.015	136.135	N.3	1	UNK0	-0.218	
6	   N	130.544	132.867	136.348	N.3	1	UNK0	-0.235	
7	   N	132.148	133.302	134.701	N.3	1	UNK0	-0.183	
8	   N	132.350	134.435	132.573	N.3	1	UNK0	-0.191	
9	   N	132.482	136.456	133.603	N.3	1	UNK0	-0.216	
10	   N	131.907	136.384	131.309	N.3	1	UNK0	-0.235	
11	   C	133.182	134.665	139.148	C.2	1	UNK0	0.360	
12	   C	133.407	133.696	141.372	C.3	1	UNK0	0.125	
13	   C	134.602	132.813	141.741	C.3	1	UNK0	0.020	
14	   C	134.503	132.412	143.215	C.3	1	UNK0	0.002	
15	   C	135.854	132.634	143.896	C.3	1	UNK0	0.002	
16	   C	136.925	132.888	142.832	C.3	1	UNK0	0.020	
17	   C	137.909	133.944	143.340	C.3	1	UNK0	0.122	
18	   C	139.092	133.076	145.285	C.2	1	UNK0	0.235	
19	   C	139.259	132.931	146.776	C.3	1	UNK0	0.225	
20	   C	137.115	132.489	147.846	C.2	1	UNK0	0.258	
21	   C	135.891	132.945	148.523	C.3	1	UNK0	0.108	
22	   C	135.834	133.078	149.988	C.2	1	UNK0	0.304	
23	   C	133.717	134.035	149.881	C.2	1	UNK0	0.091	
24	   C	133.610	133.725	148.508	C.3	1	UNK0	-0.001	
25	   C	132.596	134.447	150.580	C.3	1	UNK0	0.067	
26	   C	134.744	133.259	147.802	C.3	1	UNK0	0.037	
27	   C	132.376	133.873	147.855	C.3	1	UNK0	0.016	
28	   C	131.283	134.287	148.555	C.3	1	UNK0	0.030	
29	   C	131.380	134.571	149.919	C.3	1	UNK0	0.032	
30	   C	129.275	133.993	151.080	C.3	1	UNK0	0.118	
31	   C	129.908	132.600	151.061	C.3	1	UNK0	0.026	
32	   C	130.047	136.404	150.906	C.3	1	UNK0	0.118	
33	   C	129.045	136.983	149.904	C.3	1	UNK0	0.026	
34	   C	133.806	135.092	136.845	C.2	1	UNK0	0.208	
35	   C	132.757	135.685	135.903	C.3	1	UNK0	0.151	
36	   C	131.357	133.691	135.749	C.3	1	UNK0	0.672	
37	   C	132.990	134.164	133.871	C.3	1	UNK0	0.217	
38	   C	132.384	131.934	134.203	C.3	1	UNK0	0.150	
39	   C	133.245	135.536	134.475	C.3	1	UNK0	0.180	
40	   C	134.295	133.380	133.657	C.3	1	UNK0	0.209	
41	   C	132.227	135.794	132.427	C.3	1	UNK0	0.670	
42	   C	133.896	131.899	133.879	C.3	1	UNK0	0.093	
43	   O	132.282	133.879	138.929	O.co2	1	UNK0	-0.239	
44	   O	139.876	132.539	144.532	O.2	1	UNK0	-0.272	
45	   O	137.293	131.302	147.644	O.2	1	UNK0	-0.267	
46	   O	134.921	133.944	150.499	O.2	1	UNK0	-0.274	
47	   O	136.579	132.446	150.714	O.co2	1	UNK0	-0.259	
48	   O	133.552	135.547	138.200	O.2	1	UNK0	-0.302	
49	   O	134.785	133.569	132.328	O.2	1	UNK0	-0.362	
50	   O	135.278	133.779	134.614	O.2	1	UNK0	-0.362	
51	   H	134.529	135.282	140.516	 H	1	UNK0	0.164	
52	   H	137.444	134.232	145.392	 H	1	UNK0	0.162	
53	   H	137.899	134.331	147.612	 H	1	UNK0	0.163	
54	   H	130.740	135.483	136.548	 H	1	UNK0	0.178	
55	   H	130.001	133.176	137.091	 H	1	UNK0	0.174	
56	   H	130.478	131.946	136.049	 H	1	UNK0	0.174	
57	   H	132.213	137.361	133.821	 H	1	UNK0	0.178	
58	   H	131.836	137.351	131.274	 H	1	UNK0	0.174	
59	   H	131.739	135.856	130.512	 H	1	UNK0	0.174	
60	   H	132.066	133.767	131.930	 H	1	UNK0	0.180	
61	   H	135.185	134.449	132.299	 H	1	UNK0	0.213	
62	   H	135.944	134.291	134.133	 H	1	UNK0	0.213	
@<TRIPOS>BOND
1 1 12 1
2 1 51 1
3 2 18 1
4 2 52 1
5 3 20 1
6 3 53 1
7 4 30 1
8 4 32 1
9 5 36 1
10 5 54 1
11 6 55 1
12 6 56 1
13 7 37 1
14 7 38 1
15 8 41 1
16 8 60 1
17 9 41 1
18 9 57 1
19 10 58 1
20 10 59 1
21 1 11 1
22 11 43 2
23 11 48 2
24 12 13 1
25 13 14 1
26 14 15 1
27 15 16 1
28 16 17 1
29 2 17 1
30 18 19 1
31 18 44 2
32 3 19 1
33 20 21 1
34 20 45 2
35 21 22 1
36 21 26 1
37 22 46 2
38 22 47 2
39 23 24 1
40 23 25 1
41 24 26 1
42 24 27 1
43 25 29 1
44 27 28 1
45 28 29 1
46 4 29 1
47 30 31 1
48 32 33 1
49 34 35 1
50 5 35 1
51 35 39 1
52 6 36 1
53 7 36 1
54 8 37 1
55 37 39 1
56 37 40 1
57 38 42 1
58 9 39 1
59 40 42 1
60 40 49 2
61 40 50 2
62 10 41 1
63 23 46 2
64 34 48 2
65 49 61 1
66 50 62 1
@<TRIPOS>SUBSTRUCTURE
1	UNK0	1	GROUP	1 ****	UNK
