# created with PyMOL 2.3.4
@<TRIPOS>MOLECULE
ligand_out_0001
40 42 1                 
SMALL
USER_CHARGES
@<TRIPOS>ATOM
1	   N	139.568	130.540	146.154	N.3	1	UNK0	-0.235	
2	   N	138.499	132.391	145.174	N.3	1	UNK0	-0.218	
3	   N	136.524	134.409	146.417	N.3	1	UNK0	-0.216	
4	   N	136.199	135.286	148.591	N.3	1	UNK0	-0.235	
5	   N	136.395	132.967	148.169	N.3	1	UNK0	-0.191	
6	   N	137.441	131.200	146.882	N.3	1	UNK0	-0.176	
7	   N	135.876	133.032	141.190	N.pl3	1	UNK0	-0.346	
8	   C	138.545	131.344	146.077	C.3	1	UNK0	0.672	
9	   C	137.195	132.828	144.684	C.3	1	UNK0	0.151	
10	   C	136.212	133.099	145.806	C.3	1	UNK0	0.180	
11	   C	136.362	134.282	147.776	C.3	1	UNK0	0.670	
12	   C	136.308	132.124	146.966	C.3	1	UNK0	0.220	
13	   C	137.133	130.075	147.777	C.3	1	UNK0	0.141	
14	   C	135.597	130.018	147.905	C.2	1	UNK0	0.235	
15	   C	135.072	131.206	147.053	C.3	1	UNK0	0.239	
16	   C	136.617	131.740	143.776	C.2	1	UNK0	0.208	
17	   C	135.234	133.148	142.369	C.2	1	UNK0	0.358	
18	   C	137.766	130.310	149.150	C.3	1	UNK0	0.028	
19	   C	138.101	128.964	149.793	C.3	1	UNK0	-0.002	
20	   C	138.586	127.991	148.716	C.3	1	UNK0	0.005	
21	   O	135.319	132.161	143.282	O.2	1	UNK0	-0.302	
22	   O	134.580	134.144	142.610	O.co2	1	UNK0	-0.239	
23	   O	133.988	131.864	147.712	O.2	1	UNK0	-0.360	
24	   O	134.682	130.764	145.751	O.2	1	UNK0	-0.360	
25	   O	135.101	128.779	147.394	O.2	1	UNK0	-0.244	
26	   O	135.050	127.510	149.412	O.3	1	UNK0	-0.572	
27	   O	133.488	129.322	149.064	O.3	1	UNK0	-0.572	
28	   O	133.283	127.285	147.779	O.3	1	UNK0	-0.572	
29	   S	134.187	128.196	148.463	S.3	1	UNK0	0.252	
30	   H	140.330	130.667	145.567	 H	1	UNK0	0.174	
31	   H	139.569	129.818	146.802	 H	1	UNK0	0.174	
32	   H	136.185	136.192	148.247	 H	1	UNK0	0.174	
33	   H	136.089	135.126	149.542	 H	1	UNK0	0.174	
34	   H	139.313	132.825	144.874	 H	1	UNK0	0.178	
35	   H	136.795	135.212	145.946	 H	1	UNK0	0.178	
36	   H	136.461	132.648	149.082	 H	1	UNK0	0.180	
37	   H	136.398	132.238	140.999	 H	1	UNK0	0.161	
38	   H	135.815	133.744	140.533	 H	1	UNK0	0.161	
39	   H	133.362	132.130	147.025	 H	1	UNK0	0.213	
40	   H	133.793	131.109	145.594	 H	1	UNK0	0.213	
@<TRIPOS>BOND
1 1 8 1
2 1 30 1
3 1 31 1
4 2 9 1
5 2 34 1
6 3 11 1
7 3 35 1
8 4 32 1
9 4 33 1
10 5 36 1
11 6 13 1
12 7 37 1
13 7 38 1
14 2 8 1
15 6 8 1
16 9 10 1
17 9 16 1
18 3 10 1
19 10 12 1
20 4 11 1
21 5 11 1
22 5 12 1
23 6 12 1
24 12 15 1
25 13 14 1
26 13 18 1
27 14 15 1
28 14 25 2
29 15 23 2
30 15 24 2
31 16 21 2
32 7 17 1
33 17 22 2
34 18 19 1
35 19 20 1
36 17 21 2
37 23 39 1
38 24 40 1
39 25 29 1
40 26 29 1
41 27 29 1
42 28 29 1
@<TRIPOS>SUBSTRUCTURE
1	UNK0	1	GROUP	1 ****	UNK
