MODEL 1
REMARK VINA RESULT:      -7.3      0.000      0.000
REMARK  9 active torsions:
REMARK  status: ('A' for Active; 'I' for Inactive)
REMARK    1  A    between atoms: C_6  and  C_7 
REMARK    2  A    between atoms: C_7  and  O_8 
REMARK    3  A    between atoms: O_8  and  C_9 
REMARK       I    between atoms: C_9  and  N_10 
REMARK    4  A    between atoms: C_21  and  C_22 
REMARK    5  A    between atoms: C_22  and  C_23 
REMARK    6  A    between atoms: C_25  and  O_26 
REMARK    7  A    between atoms: O_26  and  S_27 
REMARK    8  A    between atoms: C_31  and  O_32 
REMARK    9  A    between atoms: C_31  and  O_33 
ROOT
ATOM      1  N           0     139.568 130.540 146.154  0.00  0.00    -0.235 N 
ATOM      2  H           0     140.330 130.667 145.567  0.00  0.00     0.174 HD
ATOM      3  H           0     139.569 129.818 146.802  0.00  0.00     0.174 HD
ATOM      4  C           0     138.545 131.344 146.077  0.00  0.00     0.672 C 
ATOM      5  N           0     138.499 132.391 145.174  0.00  0.00    -0.218 N 
ATOM      6  C           0     137.195 132.828 144.684  0.00  0.00     0.151 C 
ATOM      7  C           0     136.212 133.099 145.806  0.00  0.00     0.180 C 
ATOM      8  N           0     136.524 134.409 146.417  0.00  0.00    -0.216 N 
ATOM      9  C           0     136.362 134.282 147.776  0.00  0.00     0.670 C 
ATOM     10  N           0     136.199 135.286 148.591  0.00  0.00    -0.235 N 
ATOM     11  H           0     136.185 136.192 148.247  0.00  0.00     0.174 HD
ATOM     12  H           0     136.089 135.126 149.542  0.00  0.00     0.174 HD
ATOM     13  C           0     136.308 132.124 146.966  0.00  0.00     0.220 C 
ATOM     14  N           0     136.395 132.967 148.169  0.00  0.00    -0.191 N 
ATOM     15  N           0     137.441 131.200 146.882  0.00  0.00    -0.176 N 
ATOM     16  C           0     137.133 130.075 147.777  0.00  0.00     0.141 C 
ATOM     17  C           0     135.597 130.018 147.905  0.00  0.00     0.235 C 
ATOM     18  C           0     135.072 131.206 147.053  0.00  0.00     0.239 C 
ATOM     19  H           0     139.313 132.825 144.874  0.00  0.00     0.178 HD
ATOM     20  H           0     136.795 135.212 145.946  0.00  0.00     0.178 HD
ATOM     21  H           0     136.461 132.648 149.082  0.00  0.00     0.180 HD
ENDROOT
BRANCH   6  22
ATOM     22  C           0     136.617 131.740 143.776  0.00  0.00     0.208 C 
BRANCH  22  23
ATOM     23  O           0     135.319 132.161 143.282  0.00  0.00    -0.302 OA
BRANCH  23  24
ATOM     24  C           0     135.234 133.148 142.369  0.00  0.00     0.358 C 
ATOM     25  N           0     135.876 133.032 141.190  0.00  0.00    -0.346 N 
ATOM     26  H           0     136.398 132.238 140.999  0.00  0.00     0.161 HD
ATOM     27  H           0     135.815 133.744 140.533  0.00  0.00     0.161 HD
ATOM     28  O           0     134.580 134.144 142.610  0.00  0.00    -0.239 OA
ENDBRANCH  23  24
ENDBRANCH  22  23
ENDBRANCH   6  22
BRANCH  18  29
ATOM     29  O           0     133.988 131.864 147.712  0.00  0.00    -0.360 OA
ATOM     30  H           0     133.362 132.130 147.025  0.00  0.00     0.213 HD
ENDBRANCH  18  29
BRANCH  18  31
ATOM     31  O           0     134.682 130.764 145.751  0.00  0.00    -0.360 OA
ATOM     32  H           0     133.793 131.109 145.594  0.00  0.00     0.213 HD
ENDBRANCH  18  31
BRANCH  16  33
ATOM     33  C           0     137.766 130.310 149.150  0.00  0.00     0.028 C 
BRANCH  33  34
ATOM     34  C           0     138.101 128.964 149.793  0.00  0.00    -0.002 C 
ATOM     35  C           0     138.586 127.991 148.716  0.00  0.00     0.005 C 
ENDBRANCH  33  34
ENDBRANCH  16  33
BRANCH  17  36
ATOM     36  O           0     135.101 128.779 147.394  0.00  0.00    -0.244 OA
BRANCH  36  37
ATOM     37  S           0     134.187 128.196 148.463  0.00  0.00     0.252 S 
ATOM     38  O           0     135.050 127.510 149.412  0.00  0.00    -0.572 OA
ATOM     39  O           0     133.488 129.322 149.064  0.00  0.00    -0.572 OA
ATOM     40  O           0     133.283 127.285 147.779  0.00  0.00    -0.572 OA
ENDBRANCH  36  37
ENDBRANCH  17  36
TORSDOF 9
ENDMDL
MODEL 2
REMARK VINA RESULT:      -6.9      9.704     13.763
REMARK  9 active torsions:
REMARK  status: ('A' for Active; 'I' for Inactive)
REMARK    1  A    between atoms: C_6  and  C_7 
REMARK    2  A    between atoms: C_7  and  O_8 
REMARK    3  A    between atoms: O_8  and  C_9 
REMARK       I    between atoms: C_9  and  N_10 
REMARK    4  A    between atoms: C_21  and  C_22 
REMARK    5  A    between atoms: C_22  and  C_23 
REMARK    6  A    between atoms: C_25  and  O_26 
REMARK    7  A    between atoms: O_26  and  S_27 
REMARK    8  A    between atoms: C_31  and  O_32 
REMARK    9  A    between atoms: C_31  and  O_33 
ROOT
ATOM      1  N           0     130.371 133.072 136.474  0.00  0.00    -0.235 N 
ATOM      2  H           0     129.978 133.529 137.234  0.00  0.00     0.174 HD
ATOM      3  H           0     130.093 132.168 136.254  0.00  0.00     0.174 HD
ATOM      4  C           0     131.267 133.673 135.744  0.00  0.00     0.672 C 
ATOM      5  N           0     131.692 134.962 136.013  0.00  0.00    -0.218 N 
ATOM      6  C           0     133.049 135.340 135.632  0.00  0.00     0.151 C 
ATOM      7  C           0     133.360 135.009 134.185  0.00  0.00     0.180 C 
ATOM      8  N           0     132.733 136.024 133.310  0.00  0.00    -0.216 N 
ATOM      9  C           0     132.230 135.370 132.211  0.00  0.00     0.670 C 
ATOM     10  N           0     131.936 135.953 131.083  0.00  0.00    -0.235 N 
ATOM     11  H           0     132.071 136.908 130.981  0.00  0.00     0.174 HD
ATOM     12  H           0     131.584 135.431 130.345  0.00  0.00     0.174 HD
ATOM     13  C           0     132.766 133.697 133.705  0.00  0.00     0.220 C 
ATOM     14  N           0     132.074 134.027 132.449  0.00  0.00    -0.191 N 
ATOM     15  N           0     131.856 133.065 134.662  0.00  0.00    -0.176 N 
ATOM     16  C           0     131.749 131.652 134.270  0.00  0.00     0.141 C 
ATOM     17  C           0     133.037 131.309 133.492  0.00  0.00     0.235 C 
ATOM     18  C           0     133.850 132.632 133.447  0.00  0.00     0.239 C 
ATOM     19  H           0     131.101 135.600 136.445  0.00  0.00     0.178 HD
ATOM     20  H           0     132.684 136.977 133.480  0.00  0.00     0.178 HD
ATOM     21  H           0     131.594 133.402 131.884  0.00  0.00     0.180 HD
ENDROOT
BRANCH   6  22
ATOM     22  C           0     134.040 134.598 136.530  0.00  0.00     0.208 C 
BRANCH  22  23
ATOM     23  O           0     134.277 135.375 137.734  0.00  0.00    -0.302 OA
BRANCH  23  24
ATOM     24  C           0     133.503 135.186 138.820  0.00  0.00     0.358 C 
ATOM     25  N           0     133.493 136.103 139.808  0.00  0.00    -0.346 N 
ATOM     26  H           0     134.042 136.898 139.736  0.00  0.00     0.161 HD
ATOM     27  H           0     132.936 135.966 140.590  0.00  0.00     0.161 HD
ATOM     28  O           0     132.815 134.188 138.909  0.00  0.00    -0.239 OA
ENDBRANCH  23  24
ENDBRANCH  22  23
ENDBRANCH   6  22
BRANCH  18  29
ATOM     29  O           0     134.454 132.812 132.164  0.00  0.00    -0.360 OA
ATOM     30  H           0     133.734 132.950 131.533  0.00  0.00     0.213 HD
ENDBRANCH  18  29
BRANCH  18  31
ATOM     31  O           0     134.836 132.657 134.481  0.00  0.00    -0.360 OA
ATOM     32  H           0     135.560 132.086 134.191  0.00  0.00     0.213 HD
ENDBRANCH  18  31
BRANCH  16  33
ATOM     33  C           0     130.526 131.448 133.373  0.00  0.00     0.028 C 
BRANCH  33  34
ATOM     34  C           0     130.481 129.996 132.895  0.00  0.00    -0.002 C 
ATOM     35  C           0     129.061 129.450 133.057  0.00  0.00     0.005 C 
ENDBRANCH  33  34
ENDBRANCH  16  33
BRANCH  17  36
ATOM     36  O           0     133.774 130.293 134.175  0.00  0.00    -0.244 OA
BRANCH  36  37
ATOM     37  S           0     134.512 129.493 133.111  0.00  0.00     0.252 S 
ATOM     38  O           0     133.757 129.657 131.877  0.00  0.00    -0.572 OA
ATOM     39  O           0     135.848 130.063 133.021  0.00  0.00    -0.572 OA
ATOM     40  O           0     134.529 128.113 133.569  0.00  0.00    -0.572 OA
ENDBRANCH  36  37
ENDBRANCH  17  36
TORSDOF 9
ENDMDL
MODEL 3
REMARK VINA RESULT:      -6.8      2.659      5.957
REMARK  9 active torsions:
REMARK  status: ('A' for Active; 'I' for Inactive)
REMARK    1  A    between atoms: C_6  and  C_7 
REMARK    2  A    between atoms: C_7  and  O_8 
REMARK    3  A    between atoms: O_8  and  C_9 
REMARK       I    between atoms: C_9  and  N_10 
REMARK    4  A    between atoms: C_21  and  C_22 
REMARK    5  A    between atoms: C_22  and  C_23 
REMARK    6  A    between atoms: C_25  and  O_26 
REMARK    7  A    between atoms: O_26  and  S_27 
REMARK    8  A    between atoms: C_31  and  O_32 
REMARK    9  A    between atoms: C_31  and  O_33 
ROOT
ATOM      1  N           0     134.709 132.164 149.599  0.00  0.00    -0.235 N 
ATOM      2  H           0     134.274 131.864 150.413  0.00  0.00     0.174 HD
ATOM      3  H           0     134.675 133.100 149.348  0.00  0.00     0.174 HD
ATOM      4  C           0     135.345 131.310 148.848  0.00  0.00     0.672 C 
ATOM      5  N           0     135.427 129.966 149.168  0.00  0.00    -0.218 N 
ATOM      6  C           0     135.555 129.001 148.081  0.00  0.00     0.151 C 
ATOM      7  C           0     136.675 129.350 147.120  0.00  0.00     0.180 C 
ATOM      8  N           0     137.970 128.974 147.730  0.00  0.00    -0.216 N 
ATOM      9  C           0     138.874 129.963 147.427  0.00  0.00     0.670 C 
ATOM     10  N           0     140.167 129.815 147.479  0.00  0.00    -0.235 N 
ATOM     11  H           0     140.547 128.963 147.744  0.00  0.00     0.174 HD
ATOM     12  H           0     140.751 130.556 147.251  0.00  0.00     0.174 HD
ATOM     13  C           0     136.819 130.836 146.847  0.00  0.00     0.220 C 
ATOM     14  N           0     138.245 131.129 147.063  0.00  0.00    -0.191 N 
ATOM     15  N           0     135.971 131.686 147.684  0.00  0.00    -0.176 N 
ATOM     16  C           0     135.878 132.986 147.005  0.00  0.00     0.141 C 
ATOM     17  C           0     136.139 132.724 145.507  0.00  0.00     0.235 C 
ATOM     18  C           0     136.419 131.199 145.403  0.00  0.00     0.239 C 
ATOM     19  H           0     135.401 129.673 150.092  0.00  0.00     0.178 HD
ATOM     20  H           0     138.149 128.175 148.250  0.00  0.00     0.178 HD
ATOM     21  H           0     138.669 131.995 146.961  0.00  0.00     0.180 HD
ENDROOT
BRANCH   6  22
ATOM     22  C           0     134.238 128.954 147.303  0.00  0.00     0.208 C 
BRANCH  22  23
ATOM     23  O           0     133.229 128.278 148.100  0.00  0.00    -0.302 OA
BRANCH  23  24
ATOM     24  C           0     132.353 127.443 147.509  0.00  0.00     0.358 C 
ATOM     25  N           0     132.766 126.239 147.063  0.00  0.00    -0.346 N 
ATOM     26  H           0     133.692 125.976 147.169  0.00  0.00     0.161 HD
ATOM     27  H           0     132.135 125.639 146.637  0.00  0.00     0.161 HD
ATOM     28  O           0     131.192 127.775 147.377  0.00  0.00    -0.239 OA
ENDBRANCH  23  24
ENDBRANCH  22  23
ENDBRANCH   6  22
BRANCH  18  29
ATOM     29  O           0     137.489 130.941 144.492  0.00  0.00    -0.360 OA
ATOM     30  H           0     137.708 131.785 144.071  0.00  0.00     0.213 HD
ENDBRANCH  18  29
BRANCH  18  31
ATOM     31  O           0     135.239 130.492 145.016  0.00  0.00    -0.360 OA
ATOM     32  H           0     135.314 129.601 145.384  0.00  0.00     0.213 HD
ENDBRANCH  18  31
BRANCH  16  33
ATOM     33  C           0     136.933 133.945 147.561  0.00  0.00     0.028 C 
BRANCH  33  34
ATOM     34  C           0     136.253 134.999 148.435  0.00  0.00    -0.002 C 
ATOM     35  C           0     137.304 135.702 149.297  0.00  0.00     0.005 C 
ENDBRANCH  33  34
ENDBRANCH  16  33
BRANCH  17  36
ATOM     36  O           0     134.990 133.075 144.733  0.00  0.00    -0.244 OA
BRANCH  36  37
ATOM     37  S           0     135.493 133.854 143.526  0.00  0.00     0.252 S 
ATOM     38  O           0     134.366 134.638 143.045  0.00  0.00    -0.572 OA
ATOM     39  O           0     136.585 134.690 144.003  0.00  0.00    -0.572 OA
ATOM     40  O           0     135.936 132.868 142.554  0.00  0.00    -0.572 OA
ENDBRANCH  36  37
ENDBRANCH  17  36
TORSDOF 9
ENDMDL
MODEL 4
REMARK VINA RESULT:      -6.8      2.627      3.608
REMARK  9 active torsions:
REMARK  status: ('A' for Active; 'I' for Inactive)
REMARK    1  A    between atoms: C_6  and  C_7 
REMARK    2  A    between atoms: C_7  and  O_8 
REMARK    3  A    between atoms: O_8  and  C_9 
REMARK       I    between atoms: C_9  and  N_10 
REMARK    4  A    between atoms: C_21  and  C_22 
REMARK    5  A    between atoms: C_22  and  C_23 
REMARK    6  A    between atoms: C_25  and  O_26 
REMARK    7  A    between atoms: O_26  and  S_27 
REMARK    8  A    between atoms: C_31  and  O_32 
REMARK    9  A    between atoms: C_31  and  O_33 
ROOT
ATOM      1  N           0     134.361 130.793 144.005  0.00  0.00    -0.235 N 
ATOM      2  H           0     134.190 130.910 143.057  0.00  0.00     0.174 HD
ATOM      3  H           0     133.766 130.246 144.541  0.00  0.00     0.174 HD
ATOM      4  C           0     135.393 131.367 144.556  0.00  0.00     0.672 C 
ATOM      5  N           0     136.273 132.152 143.832  0.00  0.00    -0.218 N 
ATOM      6  C           0     136.973 133.230 144.524  0.00  0.00     0.151 C 
ATOM      7  C           0     137.659 132.758 145.792  0.00  0.00     0.180 C 
ATOM      8  N           0     138.909 132.053 145.432  0.00  0.00    -0.216 N 
ATOM      9  C           0     139.027 130.967 146.265  0.00  0.00     0.670 C 
ATOM     10  N           0     140.143 130.332 146.488  0.00  0.00    -0.235 N 
ATOM     11  H           0     140.960 130.621 146.053  0.00  0.00     0.174 HD
ATOM     12  H           0     140.157 129.572 147.090  0.00  0.00     0.174 HD
ATOM     13  C           0     136.872 131.725 146.578  0.00  0.00     0.220 C 
ATOM     14  N           0     137.823 130.632 146.834  0.00  0.00    -0.191 N 
ATOM     15  N           0     135.673 131.237 145.895  0.00  0.00    -0.176 N 
ATOM     16  C           0     134.814 130.640 146.928  0.00  0.00     0.141 C 
ATOM     17  C           0     135.196 131.310 148.264  0.00  0.00     0.235 C 
ATOM     18  C           0     136.348 132.293 147.912  0.00  0.00     0.239 C 
ATOM     19  H           0     136.421 131.990 142.887  0.00  0.00     0.178 HD
ATOM     20  H           0     139.532 132.309 144.734  0.00  0.00     0.178 HD
ATOM     21  H           0     137.633 129.817 147.324  0.00  0.00     0.180 HD
ENDROOT
BRANCH   6  22
ATOM     22  C           0     135.965 134.322 144.888  0.00  0.00     0.208 C 
BRANCH  22  23
ATOM     23  O           0     135.886 135.287 143.807  0.00  0.00    -0.302 OA
BRANCH  23  24
ATOM     24  C           0     134.769 135.369 143.058  0.00  0.00     0.358 C 
ATOM     25  N           0     134.397 136.552 142.531  0.00  0.00    -0.346 N 
ATOM     26  H           0     134.933 137.344 142.691  0.00  0.00     0.161 HD
ATOM     27  H           0     133.593 136.611 141.992  0.00  0.00     0.161 HD
ATOM     28  O           0     134.098 134.376 142.858  0.00  0.00    -0.239 OA
ENDBRANCH  23  24
ENDBRANCH  22  23
ENDBRANCH   6  22
BRANCH  18  29
ATOM     29  O           0     137.363 132.265 148.918  0.00  0.00    -0.360 OA
ATOM     30  H           0     138.125 131.809 148.533  0.00  0.00     0.213 HD
ENDBRANCH  18  29
BRANCH  18  31
ATOM     31  O           0     135.846 133.619 147.732  0.00  0.00    -0.360 OA
ATOM     32  H           0     134.883 133.548 147.680  0.00  0.00     0.213 HD
ENDBRANCH  18  31
BRANCH  16  33
ATOM     33  C           0     135.062 129.132 147.008  0.00  0.00     0.028 C 
BRANCH  33  34
ATOM     34  C           0     134.125 128.516 148.048  0.00  0.00    -0.002 C 
ATOM     35  C           0     133.217 127.488 147.370  0.00  0.00     0.005 C 
ENDBRANCH  33  34
ENDBRANCH  16  33
BRANCH  17  36
ATOM     36  O           0     134.079 132.021 148.801  0.00  0.00    -0.244 OA
BRANCH  36  37
ATOM     37  S           0     133.994 131.659 150.277  0.00  0.00     0.252 S 
ATOM     38  O           0     134.032 132.915 151.011  0.00  0.00    -0.572 OA
ATOM     39  O           0     132.735 130.952 150.455  0.00  0.00    -0.572 OA
ATOM     40  O           0     135.145 130.818 150.562  0.00  0.00    -0.572 OA
ENDBRANCH  36  37
ENDBRANCH  17  36
TORSDOF 9
ENDMDL
MODEL 5
REMARK VINA RESULT:      -6.6     12.448     15.335
REMARK  9 active torsions:
REMARK  status: ('A' for Active; 'I' for Inactive)
REMARK    1  A    between atoms: C_6  and  C_7 
REMARK    2  A    between atoms: C_7  and  O_8 
REMARK    3  A    between atoms: O_8  and  C_9 
REMARK       I    between atoms: C_9  and  N_10 
REMARK    4  A    between atoms: C_21  and  C_22 
REMARK    5  A    between atoms: C_22  and  C_23 
REMARK    6  A    between atoms: C_25  and  O_26 
REMARK    7  A    between atoms: O_26  and  S_27 
REMARK    8  A    between atoms: C_31  and  O_32 
REMARK    9  A    between atoms: C_31  and  O_33 
ROOT
ATOM      1  N           0     128.975 133.552 131.510  0.00  0.00    -0.235 N 
ATOM      2  H           0     128.244 133.091 131.068  0.00  0.00     0.174 HD
ATOM      3  H           0     129.174 134.475 131.285  0.00  0.00     0.174 HD
ATOM      4  C           0     129.686 132.933 132.408  0.00  0.00     0.672 C 
ATOM      5  N           0     129.439 131.619 132.767  0.00  0.00    -0.218 N 
ATOM      6  C           0     130.555 130.806 133.239  0.00  0.00     0.151 C 
ATOM      7  C           0     131.340 131.482 134.347  0.00  0.00     0.180 C 
ATOM      8  N           0     130.592 131.356 135.617  0.00  0.00    -0.216 N 
ATOM      9  C           0     130.716 132.547 136.291  0.00  0.00     0.670 C 
ATOM     10  N           0     130.506 132.690 137.569  0.00  0.00    -0.235 N 
ATOM     11  H           0     130.244 131.926 138.106  0.00  0.00     0.174 HD
ATOM     12  H           0     130.613 133.560 137.984  0.00  0.00     0.174 HD
ATOM     13  C           0     131.504 132.980 134.168  0.00  0.00     0.220 C 
ATOM     14  N           0     131.089 133.567 135.452  0.00  0.00    -0.191 N 
ATOM     15  N           0     130.735 133.540 133.055  0.00  0.00    -0.176 N 
ATOM     16  C           0     131.344 134.840 132.736  0.00  0.00     0.141 C 
ATOM     17  C           0     132.808 134.775 133.218  0.00  0.00     0.235 C 
ATOM     18  C           0     132.964 133.368 133.858  0.00  0.00     0.239 C 
ATOM     19  H           0     128.544 131.249 132.707  0.00  0.00     0.178 HD
ATOM     20  H           0     130.101 130.576 135.919  0.00  0.00     0.178 HD
ATOM     21  H           0     131.084 134.512 135.669  0.00  0.00     0.180 HD
ENDROOT
BRANCH   6  22
ATOM     22  C           0     131.498 130.531 132.066  0.00  0.00     0.208 C 
BRANCH  22  23
ATOM     23  O           0     131.609 129.098 131.860  0.00  0.00    -0.302 OA
BRANCH  23  24
ATOM     24  C           0     132.151 128.320 132.816  0.00  0.00     0.358 C 
ATOM     25  N           0     131.429 127.319 133.358  0.00  0.00    -0.346 N 
ATOM     26  H           0     130.522 127.159 133.059  0.00  0.00     0.161 HD
ATOM     27  H           0     131.820 126.759 134.048  0.00  0.00     0.161 HD
ATOM     28  O           0     133.289 128.522 133.191  0.00  0.00    -0.239 OA
ENDBRANCH  23  24
ENDBRANCH  22  23
ENDBRANCH   6  22
BRANCH  18  29
ATOM     29  O           0     133.743 133.439 135.054  0.00  0.00    -0.360 OA
ATOM     30  H           0     133.277 132.917 135.723  0.00  0.00     0.213 HD
ENDBRANCH  18  29
BRANCH  18  31
ATOM     31  O           0     133.542 132.449 132.928  0.00  0.00    -0.360 OA
ATOM     32  H           0     133.881 131.706 133.445  0.00  0.00     0.213 HD
ENDBRANCH  18  31
BRANCH  16  33
ATOM     33  C           0     130.600 135.960 133.468  0.00  0.00     0.028 C 
BRANCH  33  34
ATOM     34  C           0     129.893 136.853 132.447  0.00  0.00    -0.002 C 
ATOM     35  C           0     130.589 136.727 131.090  0.00  0.00     0.005 C 
ENDBRANCH  33  34
ENDBRANCH  16  33
BRANCH  17  36
ATOM     36  O           0     133.702 134.924 132.113  0.00  0.00    -0.244 OA
BRANCH  36  37
ATOM     37  S           0     134.626 136.087 132.448  0.00  0.00     0.252 S 
ATOM     38  O           0     135.703 136.050 131.470  0.00  0.00    -0.572 OA
ATOM     39  O           0     133.822 137.295 132.341  0.00  0.00    -0.572 OA
ATOM     40  O           0     135.102 135.858 133.803  0.00  0.00    -0.572 OA
ENDBRANCH  36  37
ENDBRANCH  17  36
TORSDOF 9
ENDMDL
MODEL 6
REMARK VINA RESULT:      -6.4     13.122     14.840
REMARK  9 active torsions:
REMARK  status: ('A' for Active; 'I' for Inactive)
REMARK    1  A    between atoms: C_6  and  C_7 
REMARK    2  A    between atoms: C_7  and  O_8 
REMARK    3  A    between atoms: O_8  and  C_9 
REMARK       I    between atoms: C_9  and  N_10 
REMARK    4  A    between atoms: C_21  and  C_22 
REMARK    5  A    between atoms: C_22  and  C_23 
REMARK    6  A    between atoms: C_25  and  O_26 
REMARK    7  A    between atoms: O_26  and  S_27 
REMARK    8  A    between atoms: C_31  and  O_32 
REMARK    9  A    between atoms: C_31  and  O_33 
ROOT
ATOM      1  N           0     134.021 132.124 130.875  0.00  0.00    -0.235 N 
ATOM      2  H           0     134.374 131.525 130.198  0.00  0.00     0.174 HD
ATOM      3  H           0     134.466 132.966 131.059  0.00  0.00     0.174 HD
ATOM      4  C           0     132.945 131.799 131.534  0.00  0.00     0.672 C 
ATOM      5  N           0     132.271 130.612 131.305  0.00  0.00    -0.218 N 
ATOM      6  C           0     131.527 130.011 132.408  0.00  0.00     0.151 C 
ATOM      7  C           0     130.586 130.993 133.078  0.00  0.00     0.180 C 
ATOM      8  N           0     129.381 131.161 132.236  0.00  0.00    -0.216 N 
ATOM      9  C           0     129.037 132.490 132.265  0.00  0.00     0.670 C 
ATOM     10  N           0     127.858 132.949 131.949  0.00  0.00    -0.235 N 
ATOM     11  H           0     127.159 132.337 131.672  0.00  0.00     0.174 HD
ATOM     12  H           0     127.681 133.902 131.992  0.00  0.00     0.174 HD
ATOM     13  C           0     131.141 132.401 133.204  0.00  0.00     0.220 C 
ATOM     14  N           0     130.088 133.277 132.668  0.00  0.00    -0.191 N 
ATOM     15  N           0     132.411 132.610 132.507  0.00  0.00    -0.176 N 
ATOM     16  C           0     133.019 133.813 133.092  0.00  0.00     0.141 C 
ATOM     17  C           0     132.439 133.956 134.515  0.00  0.00     0.235 C 
ATOM     18  C           0     131.443 132.774 134.669  0.00  0.00     0.239 C 
ATOM     19  H           0     132.292 130.190 130.432  0.00  0.00     0.178 HD
ATOM     20  H           0     128.919 130.461 131.751  0.00  0.00     0.178 HD
ATOM     21  H           0     130.127 134.245 132.612  0.00  0.00     0.180 HD
ENDROOT
BRANCH   6  22
ATOM     22  C           0     132.521 129.493 133.450  0.00  0.00     0.208 C 
BRANCH  22  23
ATOM     23  O           0     132.831 128.102 133.173  0.00  0.00    -0.302 OA
BRANCH  23  24
ATOM     24  C           0     134.047 127.764 132.706  0.00  0.00     0.358 C 
ATOM     25  N           0     134.496 126.500 132.847  0.00  0.00    -0.346 N 
ATOM     26  H           0     133.942 125.836 133.285  0.00  0.00     0.161 HD
ATOM     27  H           0     135.372 126.257 132.510  0.00  0.00     0.161 HD
ATOM     28  O           0     134.741 128.597 132.157  0.00  0.00    -0.239 OA
ENDBRANCH  23  24
ENDBRANCH  22  23
ENDBRANCH   6  22
BRANCH  18  29
ATOM     29  O           0     130.258 133.195 135.348  0.00  0.00    -0.360 OA
ATOM     30  H           0     130.291 132.809 136.235  0.00  0.00     0.213 HD
ENDBRANCH  18  29
BRANCH  18  31
ATOM     31  O           0     132.057 131.678 135.351  0.00  0.00    -0.360 OA
ATOM     32  H           0     131.385 131.299 135.933  0.00  0.00     0.213 HD
ENDBRANCH  18  31
BRANCH  16  33
ATOM     33  C           0     132.659 135.042 132.254  0.00  0.00     0.028 C 
BRANCH  33  34
ATOM     34  C           0     133.724 136.123 132.452  0.00  0.00    -0.002 C 
ATOM     35  C           0     135.056 135.638 131.876  0.00  0.00     0.005 C 
ENDBRANCH  33  34
ENDBRANCH  16  33
BRANCH  17  36
ATOM     36  O           0     133.481 133.861 135.488  0.00  0.00    -0.244 OA
BRANCH  36  37
ATOM     37  S           0     133.540 135.205 136.202  0.00  0.00     0.252 S 
ATOM     38  O           0     132.381 135.960 135.752  0.00  0.00    -0.572 OA
ATOM     39  O           0     133.492 134.915 137.627  0.00  0.00    -0.572 OA
ATOM     40  O           0     134.794 135.827 135.807  0.00  0.00    -0.572 OA
ENDBRANCH  36  37
ENDBRANCH  17  36
TORSDOF 9
ENDMDL
MODEL 7
REMARK VINA RESULT:      -6.0      3.011      5.986
REMARK  9 active torsions:
REMARK  status: ('A' for Active; 'I' for Inactive)
REMARK    1  A    between atoms: C_6  and  C_7 
REMARK    2  A    between atoms: C_7  and  O_8 
REMARK    3  A    between atoms: O_8  and  C_9 
REMARK       I    between atoms: C_9  and  N_10 
REMARK    4  A    between atoms: C_21  and  C_22 
REMARK    5  A    between atoms: C_22  and  C_23 
REMARK    6  A    between atoms: C_25  and  O_26 
REMARK    7  A    between atoms: O_26  and  S_27 
REMARK    8  A    between atoms: C_31  and  O_32 
REMARK    9  A    between atoms: C_31  and  O_33 
ROOT
ATOM      1  N           0     133.527 131.309 149.740  0.00  0.00    -0.235 N 
ATOM      2  H           0     132.817 130.960 150.301  0.00  0.00     0.174 HD
ATOM      3  H           0     133.560 132.256 149.532  0.00  0.00     0.174 HD
ATOM      4  C           0     134.439 130.506 149.270  0.00  0.00     0.672 C 
ATOM      5  N           0     134.438 129.150 149.542  0.00  0.00    -0.218 N 
ATOM      6  C           0     135.021 128.243 148.558  0.00  0.00     0.151 C 
ATOM      7  C           0     136.417 128.662 148.136  0.00  0.00     0.180 C 
ATOM      8  N           0     137.377 128.279 149.194  0.00  0.00    -0.216 N 
ATOM      9  C           0     138.290 129.299 149.314  0.00  0.00     0.670 C 
ATOM     10  N           0     139.462 129.171 149.870  0.00  0.00    -0.235 N 
ATOM     11  H           0     139.737 128.314 150.230  0.00  0.00     0.174 HD
ATOM     12  H           0     140.060 129.933 149.921  0.00  0.00     0.174 HD
ATOM     13  C           0     136.602 130.162 148.002  0.00  0.00     0.220 C 
ATOM     14  N           0     137.814 130.469 148.777  0.00  0.00    -0.191 N 
ATOM     15  N           0     135.460 130.953 148.466  0.00  0.00    -0.176 N 
ATOM     16  C           0     135.596 132.284 147.857  0.00  0.00     0.141 C 
ATOM     17  C           0     136.438 132.103 146.577  0.00  0.00     0.235 C 
ATOM     18  C           0     136.792 130.591 146.533  0.00  0.00     0.239 C 
ATOM     19  H           0     134.059 128.810 150.368  0.00  0.00     0.178 HD
ATOM     20  H           0     137.366 127.458 149.710  0.00  0.00     0.178 HD
ATOM     21  H           0     138.211 131.348 148.887  0.00  0.00     0.180 HD
ENDROOT
BRANCH   6  22
ATOM     22  C           0     134.122 128.212 147.320  0.00  0.00     0.208 C 
BRANCH  22  23
ATOM     23  O           0     133.223 127.075 147.404  0.00  0.00    -0.302 OA
BRANCH  23  24
ATOM     24  C           0     131.914 127.270 147.656  0.00  0.00     0.358 C 
ATOM     25  N           0     131.476 128.485 148.042  0.00  0.00    -0.346 N 
ATOM     26  H           0     132.103 129.218 148.138  0.00  0.00     0.161 HD
ATOM     27  H           0     130.534 128.625 148.224  0.00  0.00     0.161 HD
ATOM     28  O           0     131.129 126.351 147.536  0.00  0.00    -0.239 OA
ENDBRANCH  23  24
ENDBRANCH  22  23
ENDBRANCH   6  22
BRANCH  18  29
ATOM     29  O           0     138.144 130.400 146.112  0.00  0.00    -0.360 OA
ATOM     30  H           0     138.361 131.136 145.522  0.00  0.00     0.213 HD
ENDBRANCH  18  29
BRANCH  18  31
ATOM     31  O           0     135.889 129.883 145.681  0.00  0.00    -0.360 OA
ATOM     32  H           0     134.998 130.182 145.909  0.00  0.00     0.213 HD
ENDBRANCH  18  31
BRANCH  16  33
ATOM     33  C           0     136.308 133.232 148.824  0.00  0.00     0.028 C 
BRANCH  33  34
ATOM     34  C           0     137.474 133.912 148.105  0.00  0.00    -0.002 C 
ATOM     35  C           0     138.638 134.097 149.081  0.00  0.00     0.005 C 
ENDBRANCH  33  34
ENDBRANCH  16  33
BRANCH  17  36
ATOM     36  O           0     135.677 132.472 145.426  0.00  0.00    -0.244 OA
BRANCH  36  37
ATOM     37  S           0     136.635 133.167 144.468  0.00  0.00     0.252 S 
ATOM     38  O           0     136.557 132.441 143.210  0.00  0.00    -0.572 OA
ATOM     39  O           0     136.169 134.540 144.345  0.00  0.00    -0.572 OA
ATOM     40  O           0     137.955 133.084 145.074  0.00  0.00    -0.572 OA
ENDBRANCH  36  37
ENDBRANCH  17  36
TORSDOF 9
ENDMDL
MODEL 8
REMARK VINA RESULT:      -5.7      2.818      6.078
REMARK  9 active torsions:
REMARK  status: ('A' for Active; 'I' for Inactive)
REMARK    1  A    between atoms: C_6  and  C_7 
REMARK    2  A    between atoms: C_7  and  O_8 
REMARK    3  A    between atoms: O_8  and  C_9 
REMARK       I    between atoms: C_9  and  N_10 
REMARK    4  A    between atoms: C_21  and  C_22 
REMARK    5  A    between atoms: C_22  and  C_23 
REMARK    6  A    between atoms: C_25  and  O_26 
REMARK    7  A    between atoms: O_26  and  S_27 
REMARK    8  A    between atoms: C_31  and  O_32 
REMARK    9  A    between atoms: C_31  and  O_33 
ROOT
ATOM      1  N           0     134.809 132.445 150.062  0.00  0.00    -0.235 N 
ATOM      2  H           0     134.220 132.280 150.815  0.00  0.00     0.174 HD
ATOM      3  H           0     134.842 133.326 149.655  0.00  0.00     0.174 HD
ATOM      4  C           0     135.560 131.486 149.600  0.00  0.00     0.672 C 
ATOM      5  N           0     135.553 130.216 150.149  0.00  0.00    -0.218 N 
ATOM      6  C           0     135.867 129.083 149.284  0.00  0.00     0.151 C 
ATOM      7  C           0     137.158 129.281 148.512  0.00  0.00     0.180 C 
ATOM      8  N           0     138.304 129.029 149.413  0.00  0.00    -0.216 N 
ATOM      9  C           0     139.268 129.965 149.128  0.00  0.00     0.670 C 
ATOM     10  N           0     140.525 129.844 149.451  0.00  0.00    -0.235 N 
ATOM     11  H           0     140.830 129.054 149.924  0.00  0.00     0.174 HD
ATOM     12  H           0     141.156 130.543 149.219  0.00  0.00     0.174 HD
ATOM     13  C           0     137.381 130.702 148.027  0.00  0.00     0.220 C 
ATOM     14  N           0     138.745 131.044 148.460  0.00  0.00    -0.191 N 
ATOM     15  N           0     136.404 131.669 148.532  0.00  0.00    -0.176 N 
ATOM     16  C           0     136.469 132.836 147.639  0.00  0.00     0.141 C 
ATOM     17  C           0     137.007 132.329 146.284  0.00  0.00     0.235 C 
ATOM     18  C           0     137.271 130.812 146.493  0.00  0.00     0.239 C 
ATOM     19  H           0     135.344 130.082 151.087  0.00  0.00     0.178 HD
ATOM     20  H           0     138.364 128.331 150.083  0.00  0.00     0.178 HD
ATOM     21  H           0     139.197 131.887 148.299  0.00  0.00     0.180 HD
ENDROOT
BRANCH   6  22
ATOM     22  C           0     134.723 128.890 148.287  0.00  0.00     0.208 C 
BRANCH  22  23
ATOM     23  O           0     133.618 128.213 148.944  0.00  0.00    -0.302 OA
BRANCH  23  24
ATOM     24  C           0     132.609 128.931 149.473  0.00  0.00     0.358 C 
ATOM     25  N           0     131.623 128.308 150.149  0.00  0.00    -0.346 N 
ATOM     26  H           0     131.641 127.345 150.254  0.00  0.00     0.161 HD
ATOM     27  H           0     130.896 128.825 150.530  0.00  0.00     0.161 HD
ATOM     28  O           0     132.587 130.138 149.341  0.00  0.00    -0.239 OA
ENDBRANCH  23  24
ENDBRANCH  22  23
ENDBRANCH   6  22
BRANCH  18  29
ATOM     29  O           0     138.490 130.419 145.860  0.00  0.00    -0.360 OA
ATOM     30  H           0     139.061 131.200 145.841  0.00  0.00     0.213 HD
ENDBRANCH  18  29
BRANCH  18  31
ATOM     31  O           0     136.173 130.035 146.010  0.00  0.00    -0.360 OA
ATOM     32  H           0     136.285 129.143 146.366  0.00  0.00     0.213 HD
ENDBRANCH  18  31
BRANCH  16  33
ATOM     33  C           0     137.417 133.887 148.219  0.00  0.00     0.028 C 
BRANCH  33  34
ATOM     34  C           0     136.618 135.128 148.619  0.00  0.00    -0.002 C 
ATOM     35  C           0     137.514 136.076 149.419  0.00  0.00     0.005 C 
ENDBRANCH  33  34
ENDBRANCH  16  33
BRANCH  17  36
ATOM     36  O           0     136.034 132.531 145.257  0.00  0.00    -0.244 OA
BRANCH  36  37
ATOM     37  S           0     136.802 132.775 143.966  0.00  0.00     0.252 S 
ATOM     38  O           0     136.883 131.490 143.287  0.00  0.00    -0.572 OA
ATOM     39  O           0     136.034 133.752 143.210  0.00  0.00    -0.572 OA
ATOM     40  O           0     138.110 133.279 144.353  0.00  0.00    -0.572 OA
ENDBRANCH  36  37
ENDBRANCH  17  36
TORSDOF 9
ENDMDL
MODEL 9
REMARK VINA RESULT:      -5.4     11.376     13.714
REMARK  9 active torsions:
REMARK  status: ('A' for Active; 'I' for Inactive)
REMARK    1  A    between atoms: C_6  and  C_7 
REMARK    2  A    between atoms: C_7  and  O_8 
REMARK    3  A    between atoms: O_8  and  C_9 
REMARK       I    between atoms: C_9  and  N_10 
REMARK    4  A    between atoms: C_21  and  C_22 
REMARK    5  A    between atoms: C_22  and  C_23 
REMARK    6  A    between atoms: C_25  and  O_26 
REMARK    7  A    between atoms: O_26  and  S_27 
REMARK    8  A    between atoms: C_31  and  O_32 
REMARK    9  A    between atoms: C_31  and  O_33 
ROOT
ATOM      1  N           0     129.298 134.913 133.558  0.00  0.00    -0.235 N 
ATOM      2  H           0     128.668 135.239 132.895  0.00  0.00     0.174 HD
ATOM      3  H           0     128.979 134.617 134.425  0.00  0.00     0.174 HD
ATOM      4  C           0     130.570 134.869 133.281  0.00  0.00     0.672 C 
ATOM      5  N           0     131.071 135.275 132.057  0.00  0.00    -0.218 N 
ATOM      6  C           0     132.432 135.801 132.004  0.00  0.00     0.151 C 
ATOM      7  C           0     133.438 134.882 132.670  0.00  0.00     0.180 C 
ATOM      8  N           0     133.739 133.755 131.761  0.00  0.00    -0.216 N 
ATOM      9  C           0     133.833 132.618 132.526  0.00  0.00     0.670 C 
ATOM     10  N           0     134.427 131.523 132.143  0.00  0.00    -0.235 N 
ATOM     11  H           0     134.839 131.477 131.266  0.00  0.00     0.174 HD
ATOM     12  H           0     134.458 130.755 132.734  0.00  0.00     0.174 HD
ATOM     13  C           0     132.924 134.207 133.929  0.00  0.00     0.220 C 
ATOM     14  N           0     133.224 132.778 133.746  0.00  0.00    -0.191 N 
ATOM     15  N           0     131.500 134.422 134.188  0.00  0.00    -0.176 N 
ATOM     16  C           0     131.282 134.124 135.611  0.00  0.00     0.141 C 
ATOM     17  C           0     132.635 134.335 136.321  0.00  0.00     0.235 C 
ATOM     18  C           0     133.628 134.736 135.195  0.00  0.00     0.239 C 
ATOM     19  H           0     130.531 135.211 131.253  0.00  0.00     0.178 HD
ATOM     20  H           0     133.850 133.807 130.799  0.00  0.00     0.178 HD
ATOM     21  H           0     133.028 132.070 134.380  0.00  0.00     0.180 HD
ENDROOT
BRANCH   6  22
ATOM     22  C           0     132.465 137.159 132.708  0.00  0.00     0.208 C 
BRANCH  22  23
ATOM     23  O           0     131.478 138.039 132.109  0.00  0.00    -0.302 OA
BRANCH  23  24
ATOM     24  C           0     130.563 138.651 132.885  0.00  0.00     0.358 C 
ATOM     25  N           0     129.249 138.467 132.649  0.00  0.00    -0.346 N 
ATOM     26  H           0     128.963 137.895 131.921  0.00  0.00     0.161 HD
ATOM     27  H           0     128.590 138.908 133.208  0.00  0.00     0.161 HD
ATOM     28  O           0     130.922 139.369 133.797  0.00  0.00    -0.239 OA
ENDBRANCH  23  24
ENDBRANCH  22  23
ENDBRANCH   6  22
BRANCH  18  29
ATOM     29  O           0     134.893 134.099 135.385  0.00  0.00    -0.360 OA
ATOM     30  H           0     134.842 133.239 134.945  0.00  0.00     0.213 HD
ENDBRANCH  18  29
BRANCH  18  31
ATOM     31  O           0     133.777 136.155 135.131  0.00  0.00    -0.360 OA
ATOM     32  H           0     133.069 136.535 135.668  0.00  0.00     0.213 HD
ENDBRANCH  18  31
BRANCH  16  33
ATOM     33  C           0     130.823 132.673 135.778  0.00  0.00     0.028 C 
BRANCH  33  34
ATOM     34  C           0     130.166 132.501 137.148  0.00  0.00    -0.002 C 
ATOM     35  C           0     130.499 131.114 137.702  0.00  0.00     0.005 C 
ENDBRANCH  33  34
ENDBRANCH  16  33
BRANCH  17  36
ATOM     36  O           0     132.530 135.381 137.290  0.00  0.00    -0.244 OA
BRANCH  36  37
ATOM     37  S           0     133.206 134.877 138.557  0.00  0.00     0.252 S 
ATOM     38  O           0     134.581 134.567 138.193  0.00  0.00    -0.572 OA
ATOM     39  O           0     133.121 135.959 139.526  0.00  0.00    -0.572 OA
ATOM     40  O           0     132.467 133.698 138.978  0.00  0.00    -0.572 OA
ENDBRANCH  36  37
ENDBRANCH  17  36
TORSDOF 9
ENDMDL
