# created with PyMOL 2.3.4
@<TRIPOS>MOLECULE
ligand_out_0001
32 34 1                 
SMALL
USER_CHARGES
@<TRIPOS>ATOM
1	   N	135.518	132.655	147.062	N.3	1	UNK0	-0.235	
2	   N	136.822	134.375	146.128	N.3	1	UNK0	-0.218	
3	   N	136.271	136.100	143.636	N.3	1	UNK0	-0.216	
4	   N	134.318	136.870	142.543	N.3	1	UNK0	-0.235	
5	   N	134.636	134.603	143.137	N.3	1	UNK0	-0.191	
6	   N	135.510	133.027	144.751	N.3	1	UNK0	-0.183	
7	   C	135.930	133.324	146.021	C.3	1	UNK0	0.672	
8	   C	137.697	134.659	144.994	C.3	1	UNK0	0.151	
9	   C	136.939	134.782	143.687	C.3	1	UNK0	0.180	
10	   C	135.031	135.916	143.073	C.3	1	UNK0	0.670	
11	   C	135.797	133.789	143.535	C.3	1	UNK0	0.217	
12	   C	134.735	131.856	144.304	C.3	1	UNK0	0.150	
13	   C	135.391	131.451	142.962	C.3	1	UNK0	0.093	
14	   C	136.092	132.736	142.452	C.3	1	UNK0	0.209	
15	   C	138.719	133.527	144.863	C.2	1	UNK0	0.206	
16	   C	140.657	133.169	146.270	C.2	1	UNK0	0.262	
17	   C	140.820	133.587	147.708	C.3	1	UNK0	0.077	
18	   C	141.050	135.098	147.778	C.3	1	UNK0	0.020	
19	   C	139.556	133.227	148.491	C.3	1	UNK0	0.020	
20	   O	139.992	133.960	145.412	O.2	1	UNK0	-0.319	
21	   O	141.125	132.123	145.888	O.co2	1	UNK0	-0.265	
22	   O	135.544	133.138	141.196	O.2	1	UNK0	-0.362	
23	   O	137.501	132.523	142.339	O.2	1	UNK0	-0.362	
24	   H	135.838	132.890	147.947	 H	1	UNK0	0.174	
25	   H	134.888	131.926	146.951	 H	1	UNK0	0.174	
26	   H	134.657	137.778	142.531	 H	1	UNK0	0.174	
27	   H	133.449	136.671	142.162	 H	1	UNK0	0.174	
28	   H	136.865	134.912	146.936	 H	1	UNK0	0.178	
29	   H	136.640	136.942	143.944	 H	1	UNK0	0.178	
30	   H	133.746	134.268	142.950	 H	1	UNK0	0.180	
31	   H	134.775	132.576	141.034	 H	1	UNK0	0.213	
32	   H	137.646	132.052	141.506	 H	1	UNK0	0.213	
@<TRIPOS>BOND
1 1 7 1
2 1 24 1
3 1 25 1
4 2 8 1
5 2 28 1
6 3 10 1
7 3 29 1
8 4 26 1
9 4 27 1
10 5 30 1
11 6 12 1
12 2 7 1
13 6 7 1
14 8 9 1
15 8 15 1
16 3 9 1
17 9 11 1
18 4 10 1
19 5 10 1
20 5 11 1
21 6 11 1
22 11 14 1
23 12 13 1
24 13 14 1
25 14 22 2
26 14 23 2
27 15 20 2
28 16 17 1
29 16 21 2
30 17 18 1
31 17 19 1
32 16 20 2
33 22 31 1
34 23 32 1
@<TRIPOS>SUBSTRUCTURE
1	UNK0	1	GROUP	1 ****	UNK
