MODEL 1
REMARK VINA RESULT:      -7.9      0.000      0.000
REMARK  6 active torsions:
REMARK  status: ('A' for Active; 'I' for Inactive)
REMARK    1  A    between atoms: C_6  and  C_7 
REMARK    2  A    between atoms: C_7  and  O_8 
REMARK    3  A    between atoms: O_8  and  C_9 
REMARK    4  A    between atoms: C_9  and  C_10 
REMARK    5  A    between atoms: C_25  and  O_26 
REMARK    6  A    between atoms: C_25  and  O_27 
ROOT
ATOM      1  N           0     135.518 132.655 147.062  0.00  0.00    -0.235 N 
ATOM      2  H           0     135.838 132.890 147.947  0.00  0.00     0.174 HD
ATOM      3  H           0     134.888 131.926 146.951  0.00  0.00     0.174 HD
ATOM      4  C           0     135.930 133.324 146.021  0.00  0.00     0.672 C 
ATOM      5  N           0     136.822 134.375 146.128  0.00  0.00    -0.218 N 
ATOM      6  C           0     137.697 134.659 144.994  0.00  0.00     0.151 C 
ATOM      7  C           0     136.939 134.782 143.687  0.00  0.00     0.180 C 
ATOM      8  N           0     136.271 136.100 143.636  0.00  0.00    -0.216 N 
ATOM      9  C           0     135.031 135.916 143.073  0.00  0.00     0.670 C 
ATOM     10  N           0     134.318 136.870 142.543  0.00  0.00    -0.235 N 
ATOM     11  H           0     134.657 137.778 142.531  0.00  0.00     0.174 HD
ATOM     12  H           0     133.449 136.671 142.162  0.00  0.00     0.174 HD
ATOM     13  C           0     135.797 133.789 143.535  0.00  0.00     0.217 C 
ATOM     14  N           0     134.636 134.603 143.137  0.00  0.00    -0.191 N 
ATOM     15  N           0     135.510 133.027 144.751  0.00  0.00    -0.183 N 
ATOM     16  C           0     134.735 131.856 144.304  0.00  0.00     0.150 C 
ATOM     17  C           0     135.391 131.451 142.962  0.00  0.00     0.093 C 
ATOM     18  C           0     136.092 132.736 142.452  0.00  0.00     0.209 C 
ATOM     19  H           0     136.865 134.912 146.936  0.00  0.00     0.178 HD
ATOM     20  H           0     136.640 136.942 143.944  0.00  0.00     0.178 HD
ATOM     21  H           0     133.746 134.268 142.950  0.00  0.00     0.180 HD
ENDROOT
BRANCH   6  22
ATOM     22  C           0     138.719 133.527 144.863  0.00  0.00     0.206 C 
BRANCH  22  23
ATOM     23  O           0     139.992 133.960 145.412  0.00  0.00    -0.319 OA
BRANCH  23  24
ATOM     24  C           0     140.657 133.169 146.270  0.00  0.00     0.262 C 
ATOM     25  O           0     141.125 132.123 145.888  0.00  0.00    -0.265 OA
BRANCH  24  26
ATOM     26  C           0     140.820 133.587 147.708  0.00  0.00     0.077 C 
ATOM     27  C           0     141.050 135.098 147.778  0.00  0.00     0.020 C 
ATOM     28  C           0     139.556 133.227 148.491  0.00  0.00     0.020 C 
ENDBRANCH  24  26
ENDBRANCH  23  24
ENDBRANCH  22  23
ENDBRANCH   6  22
BRANCH  18  29
ATOM     29  O           0     135.544 133.138 141.196  0.00  0.00    -0.362 OA
ATOM     30  H           0     134.775 132.576 141.034  0.00  0.00     0.213 HD
ENDBRANCH  18  29
BRANCH  18  31
ATOM     31  O           0     137.501 132.523 142.339  0.00  0.00    -0.362 OA
ATOM     32  H           0     137.646 132.052 141.506  0.00  0.00     0.213 HD
ENDBRANCH  18  31
TORSDOF 6
ENDMDL
MODEL 2
REMARK VINA RESULT:      -7.4      2.501      6.036
REMARK  6 active torsions:
REMARK  status: ('A' for Active; 'I' for Inactive)
REMARK    1  A    between atoms: C_6  and  C_7 
REMARK    2  A    between atoms: C_7  and  O_8 
REMARK    3  A    between atoms: O_8  and  C_9 
REMARK    4  A    between atoms: C_9  and  C_10 
REMARK    5  A    between atoms: C_25  and  O_26 
REMARK    6  A    between atoms: C_25  and  O_27 
ROOT
ATOM      1  N           0     136.242 134.898 147.761  0.00  0.00    -0.235 N 
ATOM      2  H           0     135.380 134.849 148.201  0.00  0.00     0.174 HD
ATOM      3  H           0     136.833 135.647 147.933  0.00  0.00     0.174 HD
ATOM      4  C           0     136.610 133.954 146.940  0.00  0.00     0.672 C 
ATOM      5  N           0     135.805 132.863 146.665  0.00  0.00    -0.218 N 
ATOM      6  C           0     135.939 132.213 145.364  0.00  0.00     0.151 C 
ATOM      7  C           0     137.377 131.867 145.030  0.00  0.00     0.180 C 
ATOM      8  N           0     137.775 130.663 145.791  0.00  0.00    -0.216 N 
ATOM      9  C           0     139.069 130.848 146.214  0.00  0.00     0.670 C 
ATOM     10  N           0     139.863 129.885 146.588  0.00  0.00    -0.235 N 
ATOM     11  H           0     139.550 128.967 146.577  0.00  0.00     0.174 HD
ATOM     12  H           0     140.767 130.085 146.877  0.00  0.00     0.174 HD
ATOM     13  C           0     138.386 132.920 145.460  0.00  0.00     0.217 C 
ATOM     14  N           0     139.421 132.175 146.197  0.00  0.00    -0.191 N 
ATOM     15  N           0     137.815 133.981 146.291  0.00  0.00    -0.183 N 
ATOM     16  C           0     138.783 135.091 146.223  0.00  0.00     0.150 C 
ATOM     17  C           0     139.278 135.080 144.757  0.00  0.00     0.093 C 
ATOM     18  C           0     139.017 133.637 144.254  0.00  0.00     0.209 C 
ATOM     19  H           0     135.167 132.537 147.321  0.00  0.00     0.178 HD
ATOM     20  H           0     137.224 129.883 145.960  0.00  0.00     0.178 HD
ATOM     21  H           0     140.218 132.556 146.597  0.00  0.00     0.180 HD
ENDROOT
BRANCH   6  22
ATOM     22  C           0     135.397 133.152 144.285  0.00  0.00     0.206 C 
BRANCH  22  23
ATOM     23  O           0     135.354 132.453 143.013  0.00  0.00    -0.319 OA
BRANCH  23  24
ATOM     24  C           0     134.172 132.173 142.440  0.00  0.00     0.262 C 
ATOM     25  O           0     133.848 131.024 142.254  0.00  0.00    -0.265 OA
BRANCH  24  26
ATOM     26  C           0     133.249 133.292 142.032  0.00  0.00     0.077 C 
ATOM     27  C           0     134.018 134.303 141.180  0.00  0.00     0.020 C 
ATOM     28  C           0     132.084 132.723 141.219  0.00  0.00     0.020 C 
ENDBRANCH  24  26
ENDBRANCH  23  24
ENDBRANCH  22  23
ENDBRANCH   6  22
BRANCH  18  29
ATOM     29  O           0     140.245 133.010 143.881  0.00  0.00    -0.362 OA
ATOM     30  H           0     140.914 133.705 143.845  0.00  0.00     0.213 HD
ENDBRANCH  18  29
BRANCH  18  31
ATOM     31  O           0     138.106 133.651 143.153  0.00  0.00    -0.362 OA
ATOM     32  H           0     138.608 133.939 142.379  0.00  0.00     0.213 HD
ENDBRANCH  18  31
TORSDOF 6
ENDMDL
MODEL 3
REMARK VINA RESULT:      -7.2      2.966      5.636
REMARK  6 active torsions:
REMARK  status: ('A' for Active; 'I' for Inactive)
REMARK    1  A    between atoms: C_6  and  C_7 
REMARK    2  A    between atoms: C_7  and  O_8 
REMARK    3  A    between atoms: O_8  and  C_9 
REMARK    4  A    between atoms: C_9  and  C_10 
REMARK    5  A    between atoms: C_25  and  O_26 
REMARK    6  A    between atoms: C_25  and  O_27 
ROOT
ATOM      1  N           0     139.632 130.494 146.325  0.00  0.00    -0.235 N 
ATOM      2  H           0     140.409 130.594 145.755  0.00  0.00     0.174 HD
ATOM      3  H           0     139.616 129.804 147.007  0.00  0.00     0.174 HD
ATOM      4  C           0     138.609 131.290 146.179  0.00  0.00     0.672 C 
ATOM      5  N           0     138.587 132.291 145.225  0.00  0.00    -0.218 N 
ATOM      6  C           0     137.294 132.707 144.688  0.00  0.00     0.151 C 
ATOM      7  C           0     136.287 133.032 145.773  0.00  0.00     0.180 C 
ATOM      8  N           0     136.597 134.362 146.340  0.00  0.00    -0.216 N 
ATOM      9  C           0     136.395 134.292 147.697  0.00  0.00     0.670 C 
ATOM     10  N           0     136.218 135.329 148.466  0.00  0.00    -0.235 N 
ATOM     11  H           0     136.223 136.221 148.085  0.00  0.00     0.174 HD
ATOM     12  H           0     136.080 135.209 149.419  0.00  0.00     0.174 HD
ATOM     13  C           0     136.345 132.101 146.975  0.00  0.00     0.217 C 
ATOM     14  N           0     136.405 132.994 148.144  0.00  0.00    -0.191 N 
ATOM     15  N           0     137.487 131.185 146.957  0.00  0.00    -0.183 N 
ATOM     16  C           0     137.138 130.109 147.903  0.00  0.00     0.150 C 
ATOM     17  C           0     135.624 129.878 147.679  0.00  0.00     0.093 C 
ATOM     18  C           0     135.100 131.202 147.066  0.00  0.00     0.209 C 
ATOM     19  H           0     139.409 132.708 144.921  0.00  0.00     0.178 HD
ATOM     20  H           0     136.889 135.142 145.844  0.00  0.00     0.178 HD
ATOM     21  H           0     136.440 132.713 149.071  0.00  0.00     0.180 HD
ENDROOT
BRANCH   6  22
ATOM     22  C           0     136.734 131.577 143.820  0.00  0.00     0.206 C 
BRANCH  22  23
ATOM     23  O           0     136.186 132.133 142.596  0.00  0.00    -0.319 OA
BRANCH  23  24
ATOM     24  C           0     134.857 132.148 142.401  0.00  0.00     0.262 C 
ATOM     25  O           0     134.188 131.200 142.737  0.00  0.00    -0.265 OA
BRANCH  24  26
ATOM     26  C           0     134.203 133.345 141.763  0.00  0.00     0.077 C 
ATOM     27  C           0     132.740 133.022 141.453  0.00  0.00     0.020 C 
ATOM     28  C           0     134.269 134.535 142.723  0.00  0.00     0.020 C 
ENDBRANCH  24  26
ENDBRANCH  23  24
ENDBRANCH  22  23
ENDBRANCH   6  22
BRANCH  18  29
ATOM     29  O           0     134.116 131.790 147.917  0.00  0.00    -0.362 OA
ATOM     30  H           0     134.037 132.717 147.655  0.00  0.00     0.213 HD
ENDBRANCH  18  29
BRANCH  18  31
ATOM     31  O           0     134.560 130.968 145.763  0.00  0.00    -0.362 OA
ATOM     32  H           0     135.292 131.059 145.137  0.00  0.00     0.213 HD
ENDBRANCH  18  31
TORSDOF 6
ENDMDL
MODEL 4
REMARK VINA RESULT:      -6.9      3.002      6.062
REMARK  6 active torsions:
REMARK  status: ('A' for Active; 'I' for Inactive)
REMARK    1  A    between atoms: C_6  and  C_7 
REMARK    2  A    between atoms: C_7  and  O_8 
REMARK    3  A    between atoms: O_8  and  C_9 
REMARK    4  A    between atoms: C_9  and  C_10 
REMARK    5  A    between atoms: C_25  and  O_26 
REMARK    6  A    between atoms: C_25  and  O_27 
ROOT
ATOM      1  N           0     133.940 131.685 148.516  0.00  0.00    -0.235 N 
ATOM      2  H           0     133.158 131.142 148.332  0.00  0.00     0.174 HD
ATOM      3  H           0     133.988 132.207 149.332  0.00  0.00     0.174 HD
ATOM      4  C           0     134.930 131.709 147.668  0.00  0.00     0.672 C 
ATOM      5  N           0     134.912 130.978 146.493  0.00  0.00    -0.218 N 
ATOM      6  C           0     135.670 131.484 145.351  0.00  0.00     0.151 C 
ATOM      7  C           0     137.105 131.820 145.705  0.00  0.00     0.180 C 
ATOM      8  N           0     137.886 130.568 145.804  0.00  0.00    -0.216 N 
ATOM      9  C           0     138.746 130.698 146.867  0.00  0.00     0.670 C 
ATOM     10  N           0     139.814 129.972 147.039  0.00  0.00    -0.235 N 
ATOM     11  H           0     140.045 129.289 146.392  0.00  0.00     0.174 HD
ATOM     12  H           0     140.379 130.116 147.814  0.00  0.00     0.174 HD
ATOM     13  C           0     137.274 132.464 147.072  0.00  0.00     0.217 C 
ATOM     14  N           0     138.339 131.687 147.729  0.00  0.00    -0.191 N 
ATOM     15  N           0     136.053 132.465 147.880  0.00  0.00    -0.183 N 
ATOM     16  C           0     136.275 133.486 148.920  0.00  0.00     0.150 C 
ATOM     17  C           0     137.029 134.621 148.188  0.00  0.00     0.093 C 
ATOM     18  C           0     137.694 133.940 146.964  0.00  0.00     0.209 C 
ATOM     19  H           0     134.410 130.151 146.430  0.00  0.00     0.178 HD
ATOM     20  H           0     137.807 129.796 145.223  0.00  0.00     0.178 HD
ATOM     21  H           0     138.695 131.850 148.616  0.00  0.00     0.180 HD
ENDROOT
BRANCH   6  22
ATOM     22  C           0     134.985 132.747 144.824  0.00  0.00     0.206 C 
BRANCH  22  23
ATOM     23  O           0     135.739 133.273 143.701  0.00  0.00    -0.319 OA
BRANCH  23  24
ATOM     24  C           0     135.173 133.343 142.485  0.00  0.00     0.262 C 
ATOM     25  O           0     135.633 132.706 141.568  0.00  0.00    -0.265 OA
BRANCH  24  26
ATOM     26  C           0     133.962 134.213 142.267  0.00  0.00     0.077 C 
ATOM     27  C           0     134.306 135.662 142.620  0.00  0.00     0.020 C 
ATOM     28  C           0     133.534 134.134 140.800  0.00  0.00     0.020 C 
ENDBRANCH  24  26
ENDBRANCH  23  24
ENDBRANCH  22  23
ENDBRANCH   6  22
BRANCH  18  29
ATOM     29  O           0     139.115 134.066 147.035  0.00  0.00    -0.362 OA
ATOM     30  H           0     139.485 133.385 146.456  0.00  0.00     0.213 HD
ENDBRANCH  18  29
BRANCH  18  31
ATOM     31  O           0     137.201 134.508 145.749  0.00  0.00    -0.362 OA
ATOM     32  H           0     136.758 133.796 145.267  0.00  0.00     0.213 HD
ENDBRANCH  18  31
TORSDOF 6
ENDMDL
MODEL 5
REMARK VINA RESULT:      -6.9      2.874      4.245
REMARK  6 active torsions:
REMARK  status: ('A' for Active; 'I' for Inactive)
REMARK    1  A    between atoms: C_6  and  C_7 
REMARK    2  A    between atoms: C_7  and  O_8 
REMARK    3  A    between atoms: O_8  and  C_9 
REMARK    4  A    between atoms: C_9  and  C_10 
REMARK    5  A    between atoms: C_25  and  O_26 
REMARK    6  A    between atoms: C_25  and  O_27 
ROOT
ATOM      1  N           0     138.574 130.612 146.074  0.00  0.00    -0.235 N 
ATOM      2  H           0     138.155 129.960 146.657  0.00  0.00     0.174 HD
ATOM      3  H           0     139.519 130.543 145.868  0.00  0.00     0.174 HD
ATOM      4  C           0     137.865 131.579 145.562  0.00  0.00     0.672 C 
ATOM      5  N           0     136.513 131.718 145.820  0.00  0.00    -0.218 N 
ATOM      6  C           0     135.932 133.057 145.773  0.00  0.00     0.151 C 
ATOM      7  C           0     136.272 133.797 144.494  0.00  0.00     0.180 C 
ATOM      8  N           0     135.428 133.278 143.396  0.00  0.00    -0.216 N 
ATOM      9  C           0     136.211 133.207 142.269  0.00  0.00     0.670 C 
ATOM     10  N           0     135.743 133.146 141.055  0.00  0.00    -0.235 N 
ATOM     11  H           0     134.786 133.150 140.903  0.00  0.00     0.174 HD
ATOM     12  H           0     136.353 133.097 140.302  0.00  0.00     0.174 HD
ATOM     13  C           0     137.692 133.568 144.002  0.00  0.00     0.217 C 
ATOM     14  N           0     137.548 133.206 142.582  0.00  0.00    -0.191 N 
ATOM     15  N           0     138.412 132.526 144.737  0.00  0.00    -0.183 N 
ATOM     16  C           0     139.838 132.758 144.445  0.00  0.00     0.150 C 
ATOM     17  C           0     139.981 134.299 144.431  0.00  0.00     0.093 C 
ATOM     18  C           0     138.557 134.834 144.134  0.00  0.00     0.209 C 
ATOM     19  H           0     135.964 130.944 146.027  0.00  0.00     0.178 HD
ATOM     20  H           0     134.492 133.034 143.459  0.00  0.00     0.178 HD
ATOM     21  H           0     138.274 133.006 141.971  0.00  0.00     0.180 HD
ENDROOT
BRANCH   6  22
ATOM     22  C           0     136.459 133.865 146.962  0.00  0.00     0.206 C 
BRANCH  22  23
ATOM     23  O           0     135.805 133.416 148.178  0.00  0.00    -0.319 OA
BRANCH  23  24
ATOM     24  C           0     136.299 132.370 148.860  0.00  0.00     0.262 C 
ATOM     25  O           0     137.488 132.154 148.855  0.00  0.00    -0.265 OA
BRANCH  24  26
ATOM     26  C           0     135.372 131.466 149.630  0.00  0.00     0.077 C 
ATOM     27  C           0     134.025 131.383 148.910  0.00  0.00     0.020 C 
ATOM     28  C           0     135.985 130.068 149.727  0.00  0.00     0.020 C 
ENDBRANCH  24  26
ENDBRANCH  23  24
ENDBRANCH  22  23
ENDBRANCH   6  22
BRANCH  18  29
ATOM     29  O           0     138.548 135.578 142.914  0.00  0.00    -0.362 OA
ATOM     30  H           0     137.711 135.381 142.473  0.00  0.00     0.213 HD
ENDBRANCH  18  29
BRANCH  18  31
ATOM     31  O           0     138.092 135.641 145.217  0.00  0.00    -0.362 OA
ATOM     32  H           0     137.145 135.781 145.075  0.00  0.00     0.213 HD
ENDBRANCH  18  31
TORSDOF 6
ENDMDL
MODEL 6
REMARK VINA RESULT:      -6.8     10.868     13.699
REMARK  6 active torsions:
REMARK  status: ('A' for Active; 'I' for Inactive)
REMARK    1  A    between atoms: C_6  and  C_7 
REMARK    2  A    between atoms: C_7  and  O_8 
REMARK    3  A    between atoms: O_8  and  C_9 
REMARK    4  A    between atoms: C_9  and  C_10 
REMARK    5  A    between atoms: C_25  and  O_26 
REMARK    6  A    between atoms: C_25  and  O_27 
ROOT
ATOM      1  N           0     128.882 133.265 131.470  0.00  0.00    -0.235 N 
ATOM      2  H           0     128.076 132.867 131.106  0.00  0.00     0.174 HD
ATOM      3  H           0     129.183 134.130 131.151  0.00  0.00     0.174 HD
ATOM      4  C           0     129.558 132.640 132.393  0.00  0.00     0.672 C 
ATOM      5  N           0     129.167 131.407 132.884  0.00  0.00    -0.218 N 
ATOM      6  C           0     130.197 130.506 133.394  0.00  0.00     0.151 C 
ATOM      7  C           0     131.112 131.175 134.401  0.00  0.00     0.180 C 
ATOM      8  N           0     130.412 131.279 135.699  0.00  0.00    -0.216 N 
ATOM      9  C           0     130.726 132.499 136.245  0.00  0.00     0.670 C 
ATOM     10  N           0     130.598 132.793 137.508  0.00  0.00    -0.235 N 
ATOM     11  H           0     130.261 132.128 138.128  0.00  0.00     0.174 HD
ATOM     12  H           0     130.839 133.676 137.828  0.00  0.00     0.174 HD
ATOM     13  C           0     131.464 132.615 134.061  0.00  0.00     0.217 C 
ATOM     14  N           0     131.193 133.373 135.294  0.00  0.00    -0.191 N 
ATOM     15  N           0     130.705 133.159 132.934  0.00  0.00    -0.183 N 
ATOM     16  C           0     131.469 134.335 132.481  0.00  0.00     0.150 C 
ATOM     17  C           0     132.950 133.906 132.617  0.00  0.00     0.093 C 
ATOM     18  C           0     132.944 132.767 133.668  0.00  0.00     0.209 C 
ATOM     19  H           0     128.232 131.148 132.891  0.00  0.00     0.178 HD
ATOM     20  H           0     129.835 130.606 136.095  0.00  0.00     0.178 HD
ATOM     21  H           0     131.325 134.326 135.414  0.00  0.00     0.180 HD
ENDROOT
BRANCH   6  22
ATOM     22  C           0     131.041 130.007 132.219  0.00  0.00     0.206 C 
BRANCH  22  23
ATOM     23  O           0     131.138 128.559 132.275  0.00  0.00    -0.319 OA
BRANCH  23  24
ATOM     24  C           0     132.297 127.976 132.624  0.00  0.00     0.262 C 
ATOM     25  O           0     133.129 128.606 133.233  0.00  0.00    -0.265 OA
BRANCH  24  26
ATOM     26  C           0     132.558 126.539 132.256  0.00  0.00     0.077 C 
ATOM     27  C           0     133.993 126.167 132.637  0.00  0.00     0.020 C 
ATOM     28  C           0     131.581 125.634 133.009  0.00  0.00     0.020 C 
ENDBRANCH  24  26
ENDBRANCH  23  24
ENDBRANCH  22  23
ENDBRANCH   6  22
BRANCH  18  29
ATOM     29  O           0     133.731 133.133 134.804  0.00  0.00    -0.362 OA
ATOM     30  H           0     133.718 134.098 134.853  0.00  0.00     0.213 HD
ENDBRANCH  18  29
BRANCH  18  31
ATOM     31  O           0     133.431 131.554 133.092  0.00  0.00    -0.362 OA
ATOM     32  H           0     134.302 131.390 133.480  0.00  0.00     0.213 HD
ENDBRANCH  18  31
TORSDOF 6
ENDMDL
MODEL 7
REMARK VINA RESULT:      -6.7      7.842     10.372
REMARK  6 active torsions:
REMARK  status: ('A' for Active; 'I' for Inactive)
REMARK    1  A    between atoms: C_6  and  C_7 
REMARK    2  A    between atoms: C_7  and  O_8 
REMARK    3  A    between atoms: O_8  and  C_9 
REMARK    4  A    between atoms: C_9  and  C_10 
REMARK    5  A    between atoms: C_25  and  O_26 
REMARK    6  A    between atoms: C_25  and  O_27 
ROOT
ATOM      1  N           0     131.371 132.093 135.238  0.00  0.00    -0.235 N 
ATOM      2  H           0     130.760 131.772 135.919  0.00  0.00     0.174 HD
ATOM      3  H           0     131.747 131.475 134.593  0.00  0.00     0.174 HD
ATOM      4  C           0     131.684 133.358 135.187  0.00  0.00     0.672 C 
ATOM      5  N           0     131.170 134.280 136.081  0.00  0.00    -0.218 N 
ATOM      6  C           0     131.968 135.464 136.390  0.00  0.00     0.151 C 
ATOM      7  C           0     132.442 136.189 135.146  0.00  0.00     0.180 C 
ATOM      8  N           0     131.318 136.965 134.579  0.00  0.00    -0.216 N 
ATOM      9  C           0     131.387 136.855 133.211  0.00  0.00     0.670 C 
ATOM     10  N           0     130.805 137.672 132.380  0.00  0.00    -0.235 N 
ATOM     11  H           0     130.283 138.417 132.718  0.00  0.00     0.174 HD
ATOM     12  H           0     130.893 137.537 131.424  0.00  0.00     0.174 HD
ATOM     13  C           0     132.860 135.268 134.010  0.00  0.00     0.217 C 
ATOM     14  N           0     132.145 135.776 132.828  0.00  0.00    -0.191 N 
ATOM     15  N           0     132.545 133.858 134.247  0.00  0.00    -0.183 N 
ATOM     16  C           0     133.394 133.107 133.305  0.00  0.00     0.150 C 
ATOM     17  C           0     134.735 133.879 133.298  0.00  0.00     0.093 C 
ATOM     18  C           0     134.378 135.313 133.763  0.00  0.00     0.209 C 
ATOM     19  H           0     130.301 134.144 136.493  0.00  0.00     0.178 HD
ATOM     20  H           0     130.654 137.462 135.081  0.00  0.00     0.178 HD
ATOM     21  H           0     132.202 135.413 131.931  0.00  0.00     0.180 HD
ENDROOT
BRANCH   6  22
ATOM     22  C           0     133.190 135.037 137.206  0.00  0.00     0.206 C 
BRANCH  22  23
ATOM     23  O           0     132.756 134.273 138.362  0.00  0.00    -0.319 OA
BRANCH  23  24
ATOM     24  C           0     133.089 134.679 139.598  0.00  0.00     0.262 C 
ATOM     25  O           0     133.161 135.859 139.847  0.00  0.00    -0.265 OA
BRANCH  24  26
ATOM     26  C           0     133.371 133.663 140.675  0.00  0.00     0.077 C 
ATOM     27  C           0     133.859 134.378 141.936  0.00  0.00     0.020 C 
ATOM     28  C           0     132.092 132.885 140.991  0.00  0.00     0.020 C 
ENDBRANCH  24  26
ENDBRANCH  23  24
ENDBRANCH  22  23
ENDBRANCH   6  22
BRANCH  18  29
ATOM     29  O           0     134.693 136.262 132.742  0.00  0.00    -0.362 OA
ATOM     30  H           0     134.519 135.829 131.896  0.00  0.00     0.213 HD
ENDBRANCH  18  29
BRANCH  18  31
ATOM     31  O           0     135.068 135.631 134.973  0.00  0.00    -0.362 OA
ATOM     32  H           0     135.921 136.009 134.716  0.00  0.00     0.213 HD
ENDBRANCH  18  31
TORSDOF 6
ENDMDL
MODEL 8
REMARK VINA RESULT:      -6.6      3.879      5.489
REMARK  6 active torsions:
REMARK  status: ('A' for Active; 'I' for Inactive)
REMARK    1  A    between atoms: C_6  and  C_7 
REMARK    2  A    between atoms: C_7  and  O_8 
REMARK    3  A    between atoms: O_8  and  C_9 
REMARK    4  A    between atoms: C_9  and  C_10 
REMARK    5  A    between atoms: C_25  and  O_26 
REMARK    6  A    between atoms: C_25  and  O_27 
ROOT
ATOM      1  N           0     138.990 130.384 146.065  0.00  0.00    -0.235 N 
ATOM      2  H           0     139.122 129.534 146.511  0.00  0.00     0.174 HD
ATOM      3  H           0     139.751 130.867 145.705  0.00  0.00     0.174 HD
ATOM      4  C           0     137.789 130.877 145.942  0.00  0.00     0.672 C 
ATOM      5  N           0     136.672 130.224 146.432  0.00  0.00    -0.218 N 
ATOM      6  C           0     135.520 131.027 146.831  0.00  0.00     0.151 C 
ATOM      7  C           0     135.091 132.007 145.757  0.00  0.00     0.180 C 
ATOM      8  N           0     134.352 131.279 144.704  0.00  0.00    -0.216 N 
ATOM      9  C           0     134.730 131.804 143.492  0.00  0.00     0.670 C 
ATOM     10  N           0     134.045 131.675 142.391  0.00  0.00    -0.235 N 
ATOM     11  H           0     133.210 131.183 142.395  0.00  0.00     0.174 HD
ATOM     12  H           0     134.370 132.072 141.568  0.00  0.00     0.174 HD
ATOM     13  C           0     136.246 132.656 145.010  0.00  0.00     0.217 C 
ATOM     14  N           0     135.921 132.482 143.584  0.00  0.00    -0.191 N 
ATOM     15  N           0     137.553 132.076 145.323  0.00  0.00    -0.183 N 
ATOM     16  C           0     138.539 133.081 144.888  0.00  0.00     0.150 C 
ATOM     17  C           0     137.895 134.437 145.260  0.00  0.00     0.093 C 
ATOM     18  C           0     136.373 134.154 145.338  0.00  0.00     0.209 C 
ATOM     19  H           0     136.655 129.256 146.508  0.00  0.00     0.178 HD
ATOM     20  H           0     133.714 130.561 144.842  0.00  0.00     0.178 HD
ATOM     21  H           0     136.455 132.795 142.838  0.00  0.00     0.180 HD
ENDROOT
BRANCH   6  22
ATOM     22  C           0     135.879 131.811 148.096  0.00  0.00     0.206 C 
BRANCH  22  23
ATOM     23  O           0     135.361 131.114 149.259  0.00  0.00    -0.319 OA
BRANCH  23  24
ATOM     24  C           0     134.034 130.982 149.428  0.00  0.00     0.262 C 
ATOM     25  O           0     133.300 131.910 149.185  0.00  0.00    -0.265 OA
BRANCH  24  26
ATOM     26  C           0     133.463 129.676 149.918  0.00  0.00     0.077 C 
ATOM     27  C           0     131.976 129.606 149.566  0.00  0.00     0.020 C 
ATOM     28  C           0     134.200 128.514 149.250  0.00  0.00     0.020 C 
ENDBRANCH  24  26
ENDBRANCH  23  24
ENDBRANCH  22  23
ENDBRANCH   6  22
BRANCH  18  29
ATOM     29  O           0     135.670 134.941 144.375  0.00  0.00    -0.362 OA
ATOM     30  H           0     135.972 135.852 144.486  0.00  0.00     0.213 HD
ENDBRANCH  18  29
BRANCH  18  31
ATOM     31  O           0     135.883 134.416 146.654  0.00  0.00    -0.362 OA
ATOM     32  H           0     134.926 134.279 146.628  0.00  0.00     0.213 HD
ENDBRANCH  18  31
TORSDOF 6
ENDMDL
MODEL 9
REMARK VINA RESULT:      -6.5      9.679     13.328
REMARK  6 active torsions:
REMARK  status: ('A' for Active; 'I' for Inactive)
REMARK    1  A    between atoms: C_6  and  C_7 
REMARK    2  A    between atoms: C_7  and  O_8 
REMARK    3  A    between atoms: O_8  and  C_9 
REMARK    4  A    between atoms: C_9  and  C_10 
REMARK    5  A    between atoms: C_25  and  O_26 
REMARK    6  A    between atoms: C_25  and  O_27 
ROOT
ATOM      1  N           0     131.351 136.928 132.072  0.00  0.00    -0.235 N 
ATOM      2  H           0     130.483 137.279 131.820  0.00  0.00     0.174 HD
ATOM      3  H           0     132.154 137.265 131.644  0.00  0.00     0.174 HD
ATOM      4  C           0     131.441 136.007 132.990  0.00  0.00     0.672 C 
ATOM      5  N           0     130.326 135.499 133.634  0.00  0.00    -0.218 N 
ATOM      6  C           0     130.383 134.130 134.140  0.00  0.00     0.151 C 
ATOM      7  C           0     131.610 133.872 134.992  0.00  0.00     0.180 C 
ATOM      8  N           0     131.405 134.470 136.329  0.00  0.00    -0.216 N 
ATOM      9  C           0     132.598 135.028 136.722  0.00  0.00     0.670 C 
ATOM     10  N           0     132.901 135.317 137.956  0.00  0.00    -0.235 N 
ATOM     11  H           0     132.265 135.137 138.666  0.00  0.00     0.174 HD
ATOM     12  H           0     133.762 135.710 138.164  0.00  0.00     0.174 HD
ATOM     13  C           0     132.874 134.546 134.482  0.00  0.00     0.217 C 
ATOM     14  N           0     133.431 135.246 135.652  0.00  0.00    -0.191 N 
ATOM     15  N           0     132.643 135.477 133.376  0.00  0.00    -0.183 N 
ATOM     16  C           0     133.961 135.666 132.744  0.00  0.00     0.150 C 
ATOM     17  C           0     134.615 134.264 132.794  0.00  0.00     0.093 C 
ATOM     18  C           0     133.895 133.524 133.950  0.00  0.00     0.209 C 
ATOM     19  H           0     129.527 136.038 133.747  0.00  0.00     0.178 HD
ATOM     20  H           0     130.579 134.468 136.838  0.00  0.00     0.178 HD
ATOM     21  H           0     134.248 135.768 135.665  0.00  0.00     0.180 HD
ENDROOT
BRANCH   6  22
ATOM     22  C           0     130.399 133.165 132.952  0.00  0.00     0.206 C 
BRANCH  22  23
ATOM     23  O           0     130.308 131.799 133.437  0.00  0.00    -0.319 OA
BRANCH  23  24
ATOM     24  C           0     129.601 130.888 132.748  0.00  0.00     0.262 C 
ATOM     25  O           0     128.808 131.247 131.911  0.00  0.00    -0.265 OA
BRANCH  24  26
ATOM     26  C           0     129.797 129.419 133.020  0.00  0.00     0.077 C 
ATOM     27  C           0     128.967 128.601 132.029  0.00  0.00     0.020 C 
ATOM     28  C           0     131.277 129.064 132.861  0.00  0.00     0.020 C 
ENDBRANCH  24  26
ENDBRANCH  23  24
ENDBRANCH  22  23
ENDBRANCH   6  22
BRANCH  18  29
ATOM     29  O           0     134.828 133.166 134.971  0.00  0.00    -0.362 OA
ATOM     30  H           0     135.663 132.967 134.528  0.00  0.00     0.213 HD
ENDBRANCH  18  29
BRANCH  18  31
ATOM     31  O           0     133.223 132.363 133.456  0.00  0.00    -0.362 OA
ATOM     32  H           0     133.383 131.655 134.096  0.00  0.00     0.213 HD
ENDBRANCH  18  31
TORSDOF 6
ENDMDL
