# created with PyMOL 2.3.4
@<TRIPOS>MOLECULE
ligand_out_0001
65 70 1                 
SMALL
USER_CHARGES
@<TRIPOS>ATOM
1	   N	133.458	134.631	140.013	N.pl3	1	UNK0	-0.335	
2	   N	135.830	135.354	143.134	N.3	1	UNK0	-0.218	
3	   N	138.134	134.919	143.325	N.3	1	UNK0	-0.235	
4	   N	136.607	133.861	144.748	N.3	1	UNK0	-0.183	
5	   N	135.208	134.362	146.657	N.3	1	UNK0	-0.191	
6	   N	133.667	135.373	145.329	N.3	1	UNK0	-0.216	
7	   N	133.653	135.844	147.647	N.3	1	UNK0	-0.235	
8	   N	133.342	135.607	136.432	N.pl3	1	UNK0	-0.359	
9	   N	132.103	133.302	133.071	N.pl3	1	UNK0	-0.288	
10	   N	133.061	127.923	131.566	N.pl3	1	UNK0	-0.361	
11	   C	133.973	135.321	137.723	C.3	1	UNK0	0.142	
12	   C	132.901	135.261	138.813	C.3	1	UNK0	0.144	
13	   C	132.744	133.705	140.681	C.2	1	UNK0	0.360	
14	   C	134.595	133.464	142.227	C.2	1	UNK0	0.208	
15	   C	134.534	134.680	143.154	C.3	1	UNK0	0.151	
16	   C	136.909	134.719	143.724	C.3	1	UNK0	0.672	
17	   C	135.294	133.662	145.365	C.3	1	UNK0	0.217	
18	   C	137.503	132.905	145.423	C.3	1	UNK0	0.150	
19	   C	134.140	134.213	144.543	C.3	1	UNK0	0.180	
20	   C	135.172	132.145	145.583	C.3	1	UNK0	0.209	
21	   C	134.146	135.230	146.608	C.3	1	UNK0	0.670	
22	   C	136.637	131.640	145.620	C.3	1	UNK0	0.093	
23	   C	133.805	135.019	135.311	C.2	1	UNK0	0.219	
24	   C	133.156	135.313	133.984	C.3	1	UNK0	0.123	
25	   C	133.326	134.108	133.055	C.3	1	UNK0	0.144	
26	   C	131.948	132.236	133.867	C.2	1	UNK0	0.231	
27	   C	130.577	131.639	133.638	C.3	1	UNK0	0.087	
28	   C	129.963	132.549	132.554	C.3	1	UNK0	0.117	
29	   C	131.050	133.568	132.288	C.2	1	UNK0	0.227	
30	   C	130.699	130.202	133.129	C.3	1	UNK0	0.014	
31	   C	129.320	129.691	132.706	C.3	1	UNK0	0.001	
32	   C	129.483	128.617	131.628	C.3	1	UNK0	0.000	
33	   C	129.022	127.267	132.180	C.3	1	UNK0	0.000	
34	   C	130.156	126.248	132.052	C.3	1	UNK0	0.000	
35	   C	131.240	126.559	133.086	C.3	1	UNK0	0.009	
36	   C	132.521	125.805	132.723	C.3	1	UNK0	0.103	
37	   C	133.497	126.756	132.078	C.2	1	UNK0	0.217	
38	   C	134.009	128.848	130.939	C.3	1	UNK0	0.128	
39	   C	134.204	130.068	131.841	C.3	1	UNK0	0.012	
40	   C	135.514	129.930	132.678	C.3	1	UNK0	0.014	
41	   C	136.603	129.622	131.594	C.3	1	UNK0	-0.025	
42	   C	135.838	131.447	132.949	C.3	1	UNK0	0.017	
43	   C	136.798	130.717	130.884	C.3	1	UNK0	-0.026	
44	   C	135.866	131.812	131.419	C.3	1	UNK0	0.009	
45	   C	134.440	131.341	130.991	C.3	1	UNK0	0.015	
46	   O	131.636	133.391	140.288	O.co2	1	UNK0	-0.239	
47	   O	133.255	133.126	141.784	O.2	1	UNK0	-0.302	
48	   O	134.517	131.866	146.823	O.2	1	UNK0	-0.362	
49	   O	134.463	131.542	144.499	O.2	1	UNK0	-0.362	
50	   O	134.743	134.253	135.371	O.2	1	UNK0	-0.274	
51	   O	132.774	131.819	134.650	O.2	1	UNK0	-0.273	
52	   O	130.979	134.479	131.493	O.2	1	UNK0	-0.273	
53	   O	134.675	126.470	132.020	O.2	1	UNK0	-0.274	
54	   H	134.341	134.882	140.326	 H	1	UNK0	0.164	
55	   H	135.930	136.225	142.719	 H	1	UNK0	0.178	
56	   H	138.312	135.531	142.593	 H	1	UNK0	0.174	
57	   H	138.867	134.461	143.762	 H	1	UNK0	0.174	
58	   H	133.118	136.102	145.000	 H	1	UNK0	0.178	
59	   H	132.899	136.445	147.542	 H	1	UNK0	0.174	
60	   H	134.039	135.698	148.525	 H	1	UNK0	0.174	
61	   H	135.800	134.232	147.415	 H	1	UNK0	0.180	
62	   H	135.182	131.483	147.410	 H	1	UNK0	0.213	
63	   H	135.042	131.589	143.726	 H	1	UNK0	0.213	
64	   H	132.592	136.220	136.384	 H	1	UNK0	0.162	
65	   H	132.120	128.152	131.612	 H	1	UNK0	0.162	
@<TRIPOS>BOND
1 1 13 1
2 1 54 1
3 2 16 1
4 2 55 1
5 3 56 1
6 3 57 1
7 4 17 1
8 4 18 1
9 5 21 1
10 5 61 1
11 6 21 1
12 6 58 1
13 7 59 1
14 7 60 1
15 8 23 1
16 8 64 1
17 9 26 1
18 9 29 1
19 10 38 1
20 10 65 1
21 8 11 1
22 11 12 1
23 1 12 1
24 13 46 2
25 13 47 2
26 14 15 1
27 2 15 1
28 15 19 1
29 3 16 1
30 4 16 1
31 5 17 1
32 17 19 1
33 17 20 1
34 18 22 1
35 6 19 1
36 20 22 1
37 20 48 2
38 20 49 2
39 7 21 1
40 23 24 1
41 23 50 2
42 24 25 1
43 9 25 1
44 26 27 1
45 26 51 2
46 27 28 1
47 27 30 1
48 28 29 1
49 29 52 2
50 30 31 1
51 31 32 1
52 32 33 1
53 33 34 1
54 34 35 1
55 35 36 1
56 36 37 1
57 10 37 1
58 37 53 2
59 38 39 1
60 39 40 1
61 39 45 1
62 40 41 1
63 40 42 1
64 41 43 1
65 42 44 1
66 43 44 1
67 44 45 1
68 14 47 2
69 48 62 1
70 49 63 1
@<TRIPOS>SUBSTRUCTURE
1	UNK0	1	GROUP	1 ****	UNK
