# created with PyMOL 2.3.4
@<TRIPOS>MOLECULE
ligand_out_0001
28 30 1                 
SMALL
USER_CHARGES
@<TRIPOS>ATOM
1	   N	135.929	134.701	146.889	N.3	1	UNK0	-0.235	
2	   N	136.339	135.040	144.597	N.3	1	UNK0	-0.218	
3	   N	134.847	133.883	142.164	N.3	1	UNK0	-0.216	
4	   N	132.625	133.185	141.752	N.3	1	UNK0	-0.235	
5	   N	133.864	132.451	143.628	N.3	1	UNK0	-0.191	
6	   N	135.479	133.004	145.341	N.3	1	UNK0	-0.183	
7	   C	135.913	134.264	145.662	C.3	1	UNK0	0.672	
8	   C	136.882	134.365	143.422	C.3	1	UNK0	0.150	
9	   C	135.970	133.270	142.904	C.3	1	UNK0	0.180	
10	   C	133.712	133.173	142.471	C.3	1	UNK0	0.670	
11	   C	135.289	132.459	143.996	C.3	1	UNK0	0.217	
12	   C	135.161	131.895	146.259	C.3	1	UNK0	0.150	
13	   C	135.741	130.642	145.562	C.3	1	UNK0	0.093	
14	   C	135.822	131.019	144.060	C.3	1	UNK0	0.209	
15	   C	138.233	133.748	143.787	C.2	1	UNK0	0.192	
16	   O	135.003	130.144	143.282	O.2	1	UNK0	-0.362	
17	   O	137.176	130.969	143.607	O.2	1	UNK0	-0.362	
18	   O	138.743	133.019	142.669	O.2	1	UNK0	-0.399	
19	   H	136.248	135.597	147.081	 H	1	UNK0	0.174	
20	   H	135.620	134.132	147.611	 H	1	UNK0	0.174	
21	   H	132.583	133.718	140.943	 H	1	UNK0	0.174	
22	   H	131.857	132.658	142.026	 H	1	UNK0	0.174	
23	   H	136.279	136.008	144.633	 H	1	UNK0	0.178	
24	   H	134.901	134.647	141.570	 H	1	UNK0	0.178	
25	   H	133.154	132.007	144.117	 H	1	UNK0	0.180	
26	   H	134.091	130.451	143.384	 H	1	UNK0	0.213	
27	   H	137.587	131.808	143.862	 H	1	UNK0	0.213	
28	   H	139.691	133.200	142.625	 H	1	UNK0	0.209	
@<TRIPOS>BOND
1 1 7 1
2 1 19 1
3 1 20 1
4 2 8 1
5 2 23 1
6 3 10 1
7 3 24 1
8 4 21 1
9 4 22 1
10 5 25 1
11 6 12 1
12 2 7 1
13 6 7 1
14 8 9 1
15 8 15 1
16 3 9 1
17 9 11 1
18 4 10 1
19 5 10 1
20 5 11 1
21 6 11 1
22 11 14 1
23 12 13 1
24 13 14 1
25 14 16 2
26 14 17 2
27 15 18 2
28 16 26 1
29 17 27 1
30 18 28 1
@<TRIPOS>SUBSTRUCTURE
1	UNK0	1	GROUP	1 ****	UNK
