# created with PyMOL 2.3.4
@<TRIPOS>MOLECULE
ligand_out_0001
28 30 1                 
SMALL
USER_CHARGES
@<TRIPOS>ATOM
1	   N	135.932	134.697	146.879	N.3	1	UNK0	-0.235	
2	   N	136.338	135.037	144.586	N.3	1	UNK0	-0.218	
3	   N	134.840	133.884	142.155	N.3	1	UNK0	-0.216	
4	   N	132.616	133.189	141.747	N.3	1	UNK0	-0.235	
5	   N	133.858	132.452	143.620	N.3	1	UNK0	-0.191	
6	   N	135.477	133.002	145.330	N.3	1	UNK0	-0.183	
7	   C	135.913	134.261	145.651	C.3	1	UNK0	0.672	
8	   C	136.878	134.362	143.409	C.3	1	UNK0	0.150	
9	   C	135.964	133.270	142.893	C.3	1	UNK0	0.180	
10	   C	133.705	133.175	142.464	C.3	1	UNK0	0.670	
11	   C	135.284	132.458	143.985	C.3	1	UNK0	0.217	
12	   C	135.160	131.892	146.248	C.3	1	UNK0	0.150	
13	   C	135.736	130.639	145.548	C.3	1	UNK0	0.093	
14	   C	135.816	131.017	144.046	C.3	1	UNK0	0.209	
15	   C	138.229	133.744	143.771	C.2	1	UNK0	0.192	
16	   O	134.994	130.144	143.269	O.2	1	UNK0	-0.362	
17	   O	137.168	130.966	143.591	O.2	1	UNK0	-0.362	
18	   O	138.732	133.007	142.654	O.2	1	UNK0	-0.399	
19	   H	136.253	135.592	147.071	 H	1	UNK0	0.174	
20	   H	135.624	134.127	147.601	 H	1	UNK0	0.174	
21	   H	132.573	133.722	140.938	 H	1	UNK0	0.174	
22	   H	131.848	132.663	142.022	 H	1	UNK0	0.174	
23	   H	136.279	136.005	144.623	 H	1	UNK0	0.178	
24	   H	134.894	134.648	141.561	 H	1	UNK0	0.178	
25	   H	133.148	132.008	144.110	 H	1	UNK0	0.180	
26	   H	135.486	129.941	142.462	 H	1	UNK0	0.213	
27	   H	137.294	131.724	143.002	 H	1	UNK0	0.213	
28	   H	138.940	133.652	141.965	 H	1	UNK0	0.209	
@<TRIPOS>BOND
1 1 7 1
2 1 19 1
3 1 20 1
4 2 8 1
5 2 23 1
6 3 10 1
7 3 24 1
8 4 21 1
9 4 22 1
10 5 25 1
11 6 12 1
12 2 7 1
13 6 7 1
14 8 9 1
15 8 15 1
16 3 9 1
17 9 11 1
18 4 10 1
19 5 10 1
20 5 11 1
21 6 11 1
22 11 14 1
23 12 13 1
24 13 14 1
25 14 16 2
26 14 17 2
27 15 18 2
28 16 26 1
29 17 27 1
30 18 28 1
@<TRIPOS>SUBSTRUCTURE
1	UNK0	1	GROUP	1 ****	UNK
