MODEL 1
REMARK VINA RESULT:      -7.4      0.000      0.000
REMARK  4 active torsions:
REMARK  status: ('A' for Active; 'I' for Inactive)
REMARK    1  A    between atoms: C_6  and  C_7 
REMARK    2  A    between atoms: C_7  and  O_8 
REMARK    3  A    between atoms: C_20  and  O_21 
REMARK    4  A    between atoms: C_20  and  O_22 
ROOT
ATOM      1  N           0     135.932 134.697 146.879  0.00  0.00    -0.235 N 
ATOM      2  H           0     136.253 135.592 147.071  0.00  0.00     0.174 HD
ATOM      3  H           0     135.624 134.127 147.601  0.00  0.00     0.174 HD
ATOM      4  C           0     135.913 134.261 145.651  0.00  0.00     0.672 C 
ATOM      5  N           0     136.338 135.037 144.586  0.00  0.00    -0.218 N 
ATOM      6  C           0     136.878 134.362 143.409  0.00  0.00     0.150 C 
ATOM      7  C           0     135.964 133.270 142.893  0.00  0.00     0.180 C 
ATOM      8  N           0     134.840 133.884 142.155  0.00  0.00    -0.216 N 
ATOM      9  C           0     133.705 133.175 142.464  0.00  0.00     0.670 C 
ATOM     10  N           0     132.616 133.189 141.747  0.00  0.00    -0.235 N 
ATOM     11  H           0     132.573 133.722 140.938  0.00  0.00     0.174 HD
ATOM     12  H           0     131.848 132.663 142.022  0.00  0.00     0.174 HD
ATOM     13  C           0     135.284 132.458 143.985  0.00  0.00     0.217 C 
ATOM     14  N           0     133.858 132.452 143.620  0.00  0.00    -0.191 N 
ATOM     15  N           0     135.477 133.002 145.330  0.00  0.00    -0.183 N 
ATOM     16  C           0     135.160 131.892 146.248  0.00  0.00     0.150 C 
ATOM     17  C           0     135.736 130.639 145.548  0.00  0.00     0.093 C 
ATOM     18  C           0     135.816 131.017 144.046  0.00  0.00     0.209 C 
ATOM     19  H           0     136.279 136.005 144.623  0.00  0.00     0.178 HD
ATOM     20  H           0     134.894 134.648 141.561  0.00  0.00     0.178 HD
ATOM     21  H           0     133.148 132.008 144.110  0.00  0.00     0.180 HD
ENDROOT
BRANCH  18  22
ATOM     22  O           0     134.994 130.144 143.269  0.00  0.00    -0.362 OA
ATOM     23  H           0     135.486 129.941 142.462  0.00  0.00     0.213 HD
ENDBRANCH  18  22
BRANCH  18  24
ATOM     24  O           0     137.168 130.966 143.591  0.00  0.00    -0.362 OA
ATOM     25  H           0     137.294 131.724 143.002  0.00  0.00     0.213 HD
ENDBRANCH  18  24
BRANCH   6  26
ATOM     26  C           0     138.229 133.744 143.771  0.00  0.00     0.192 C 
BRANCH  26  27
ATOM     27  O           0     138.732 133.007 142.654  0.00  0.00    -0.399 OA
ATOM     28  H           0     138.940 133.652 141.965  0.00  0.00     0.209 HD
ENDBRANCH  26  27
ENDBRANCH   6  26
TORSDOF 4
ENDMDL
MODEL 2
REMARK VINA RESULT:      -7.2      1.736      2.491
REMARK  4 active torsions:
REMARK  status: ('A' for Active; 'I' for Inactive)
REMARK    1  A    between atoms: C_6  and  C_7 
REMARK    2  A    between atoms: C_7  and  O_8 
REMARK    3  A    between atoms: C_20  and  O_21 
REMARK    4  A    between atoms: C_20  and  O_22 
ROOT
ATOM      1  N           0     134.898 131.981 146.656  0.00  0.00    -0.235 N 
ATOM      2  H           0     135.172 132.051 147.584  0.00  0.00     0.174 HD
ATOM      3  H           0     134.211 131.346 146.399  0.00  0.00     0.174 HD
ATOM      4  C           0     135.452 132.742 145.755  0.00  0.00     0.672 C 
ATOM      5  N           0     136.433 133.666 146.071  0.00  0.00    -0.218 N 
ATOM      6  C           0     137.415 134.011 145.048  0.00  0.00     0.150 C 
ATOM      7  C           0     136.774 134.400 143.731  0.00  0.00     0.180 C 
ATOM      8  N           0     136.244 135.776 143.835  0.00  0.00    -0.216 N 
ATOM      9  C           0     135.040 135.807 143.176  0.00  0.00     0.670 C 
ATOM     10  N           0     134.466 136.899 142.752  0.00  0.00    -0.235 N 
ATOM     11  H           0     134.891 137.758 142.895  0.00  0.00     0.174 HD
ATOM     12  H           0     133.613 136.850 142.291  0.00  0.00     0.174 HD
ATOM     13  C           0     135.557 133.567 143.361  0.00  0.00     0.217 C 
ATOM     14  N           0     134.515 134.549 143.020  0.00  0.00    -0.191 N 
ATOM     15  N           0     135.105 132.675 144.430  0.00  0.00    -0.183 N 
ATOM     16  C           0     134.255 131.670 143.766  0.00  0.00     0.150 C 
ATOM     17  C           0     134.969 131.392 142.422  0.00  0.00     0.093 C 
ATOM     18  C           0     135.830 132.653 142.155  0.00  0.00     0.209 C 
ATOM     19  H           0     136.466 134.073 146.951  0.00  0.00     0.178 HD
ATOM     20  H           0     136.669 136.521 144.287  0.00  0.00     0.178 HD
ATOM     21  H           0     133.613 134.343 142.730  0.00  0.00     0.180 HD
ENDROOT
BRANCH  18  22
ATOM     22  O           0     135.422 133.286 140.941  0.00  0.00    -0.362 OA
ATOM     23  H           0     135.775 134.187 140.963  0.00  0.00     0.213 HD
ENDBRANCH  18  22
BRANCH  18  24
ATOM     24  O           0     137.215 132.308 142.097  0.00  0.00    -0.362 OA
ATOM     25  H           0     137.607 132.579 142.940  0.00  0.00     0.213 HD
ENDBRANCH  18  24
BRANCH   6  26
ATOM     26  C           0     138.329 132.807 144.814  0.00  0.00     0.192 C 
BRANCH  26  27
ATOM     27  O           0     139.232 133.093 143.744  0.00  0.00    -0.399 OA
ATOM     28  H           0     139.264 132.304 143.187  0.00  0.00     0.209 HD
ENDBRANCH  26  27
ENDBRANCH   6  26
TORSDOF 4
ENDMDL
MODEL 3
REMARK VINA RESULT:      -6.8      1.852      3.687
REMARK  4 active torsions:
REMARK  status: ('A' for Active; 'I' for Inactive)
REMARK    1  A    between atoms: C_6  and  C_7 
REMARK    2  A    between atoms: C_7  and  O_8 
REMARK    3  A    between atoms: C_20  and  O_21 
REMARK    4  A    between atoms: C_20  and  O_22 
ROOT
ATOM      1  N           0     134.780 136.654 142.960  0.00  0.00    -0.235 N 
ATOM      2  H           0     133.968 137.062 142.621  0.00  0.00     0.174 HD
ATOM      3  H           0     135.544 137.208 143.184  0.00  0.00     0.174 HD
ATOM      4  C           0     134.843 135.362 143.117  0.00  0.00     0.672 C 
ATOM      5  N           0     133.778 134.530 142.816  0.00  0.00    -0.218 N 
ATOM      6  C           0     134.066 133.156 142.413  0.00  0.00     0.150 C 
ATOM      7  C           0     134.994 132.446 143.378  0.00  0.00     0.180 C 
ATOM      8  N           0     134.231 132.045 144.579  0.00  0.00    -0.216 N 
ATOM      9  C           0     135.037 132.255 145.671  0.00  0.00     0.670 C 
ATOM     10  N           0     134.854 131.695 146.835  0.00  0.00    -0.235 N 
ATOM     11  H           0     134.111 131.086 146.969  0.00  0.00     0.174 HD
ATOM     12  H           0     135.462 131.887 147.566  0.00  0.00     0.174 HD
ATOM     13  C           0     136.108 133.322 143.929  0.00  0.00     0.217 C 
ATOM     14  N           0     136.057 133.128 145.388  0.00  0.00    -0.191 N 
ATOM     15  N           0     135.970 134.739 143.586  0.00  0.00    -0.183 N 
ATOM     16  C           0     137.307 135.323 143.796  0.00  0.00     0.150 C 
ATOM     17  C           0     138.285 134.231 143.301  0.00  0.00     0.093 C 
ATOM     18  C           0     137.487 132.905 143.393  0.00  0.00     0.209 C 
ATOM     19  H           0     132.865 134.852 142.872  0.00  0.00     0.178 HD
ATOM     20  H           0     133.326 131.697 144.594  0.00  0.00     0.178 HD
ATOM     21  H           0     136.647 133.541 146.037  0.00  0.00     0.180 HD
ENDROOT
BRANCH  18  22
ATOM     22  O           0     138.126 132.001 144.297  0.00  0.00    -0.362 OA
ATOM     23  H           0     138.909 132.454 144.639  0.00  0.00     0.213 HD
ENDBRANCH  18  22
BRANCH  18  24
ATOM     24  O           0     137.358 132.311 142.100  0.00  0.00    -0.362 OA
ATOM     25  H           0     136.888 132.949 141.545  0.00  0.00     0.213 HD
ENDBRANCH  18  24
BRANCH   6  26
ATOM     26  C           0     134.717 133.175 141.028  0.00  0.00     0.192 C 
BRANCH  26  27
ATOM     27  O           0     134.045 134.125 140.198  0.00  0.00    -0.399 OA
ATOM     28  H           0     134.154 134.988 140.616  0.00  0.00     0.209 HD
ENDBRANCH  26  27
ENDBRANCH   6  26
TORSDOF 4
ENDMDL
MODEL 4
REMARK VINA RESULT:      -6.6      2.027      2.328
REMARK  4 active torsions:
REMARK  status: ('A' for Active; 'I' for Inactive)
REMARK    1  A    between atoms: C_6  and  C_7 
REMARK    2  A    between atoms: C_7  and  O_8 
REMARK    3  A    between atoms: C_20  and  O_21 
REMARK    4  A    between atoms: C_20  and  O_22 
ROOT
ATOM      1  N           0     136.038 134.680 147.568  0.00  0.00    -0.235 N 
ATOM      2  H           0     136.467 135.546 147.489  0.00  0.00     0.174 HD
ATOM      3  H           0     135.438 134.502 148.310  0.00  0.00     0.174 HD
ATOM      4  C           0     136.265 133.757 146.677  0.00  0.00     0.672 C 
ATOM      5  N           0     137.108 133.965 145.598  0.00  0.00    -0.218 N 
ATOM      6  C           0     137.799 132.812 145.028  0.00  0.00     0.150 C 
ATOM      7  C           0     136.859 131.667 144.710  0.00  0.00     0.180 C 
ATOM      8  N           0     136.123 131.973 143.465  0.00  0.00    -0.216 N 
ATOM      9  C           0     134.829 131.545 143.634  0.00  0.00     0.670 C 
ATOM     10  N           0     133.999 131.319 142.654  0.00  0.00    -0.235 N 
ATOM     11  H           0     134.284 131.450 141.736  0.00  0.00     0.174 HD
ATOM     12  H           0     133.097 131.016 142.842  0.00  0.00     0.174 HD
ATOM     13  C           0     135.762 131.456 145.741  0.00  0.00     0.217 C 
ATOM     14  N           0     134.516 131.387 144.961  0.00  0.00    -0.191 N 
ATOM     15  N           0     135.689 132.516 146.749  0.00  0.00    -0.183 N 
ATOM     16  C           0     134.920 131.938 147.867  0.00  0.00     0.150 C 
ATOM     17  C           0     135.402 130.470 147.945  0.00  0.00     0.093 C 
ATOM     18  C           0     135.958 130.153 146.532  0.00  0.00     0.209 C 
ATOM     19  H           0     137.235 134.854 145.232  0.00  0.00     0.178 HD
ATOM     20  H           0     136.486 132.399 142.674  0.00  0.00     0.178 HD
ATOM     21  H           0     133.627 131.248 145.321  0.00  0.00     0.180 HD
ENDROOT
BRANCH  18  22
ATOM     22  O           0     135.220 129.086 145.935  0.00  0.00    -0.362 OA
ATOM     23  H           0     135.143 129.291 144.993  0.00  0.00     0.213 HD
ENDBRANCH  18  22
BRANCH  18  24
ATOM     24  O           0     137.345 129.820 146.606  0.00  0.00    -0.362 OA
ATOM     25  H           0     137.701 130.272 147.385  0.00  0.00     0.213 HD
ENDBRANCH  18  24
BRANCH   6  26
ATOM     26  C           0     138.851 132.324 146.026  0.00  0.00     0.192 C 
BRANCH  26  27
ATOM     27  O           0     140.147 132.401 145.429  0.00  0.00    -0.399 OA
ATOM     28  H           0     140.782 132.493 146.151  0.00  0.00     0.209 HD
ENDBRANCH  26  27
ENDBRANCH   6  26
TORSDOF 4
ENDMDL
MODEL 5
REMARK VINA RESULT:      -6.3      1.442      4.223
REMARK  4 active torsions:
REMARK  status: ('A' for Active; 'I' for Inactive)
REMARK    1  A    between atoms: C_6  and  C_7 
REMARK    2  A    between atoms: C_7  and  O_8 
REMARK    3  A    between atoms: C_20  and  O_21 
REMARK    4  A    between atoms: C_20  and  O_22 
ROOT
ATOM      1  N           0     134.750 134.731 142.308  0.00  0.00    -0.235 N 
ATOM      2  H           0     133.844 134.735 141.964  0.00  0.00     0.174 HD
ATOM      3  H           0     135.432 135.275 141.885  0.00  0.00     0.174 HD
ATOM      4  C           0     135.051 133.996 143.342  0.00  0.00     0.672 C 
ATOM      5  N           0     134.112 133.207 143.984  0.00  0.00    -0.218 N 
ATOM      6  C           0     134.572 132.000 144.665  0.00  0.00     0.150 C 
ATOM      7  C           0     135.725 132.268 145.612  0.00  0.00     0.180 C 
ATOM      8  N           0     135.206 132.894 146.846  0.00  0.00    -0.216 N 
ATOM      9  C           0     136.102 133.863 147.227  0.00  0.00     0.670 C 
ATOM     10  N           0     136.170 134.364 148.429  0.00  0.00    -0.235 N 
ATOM     11  H           0     135.566 134.053 149.120  0.00  0.00     0.174 HD
ATOM     12  H           0     136.829 135.048 148.632  0.00  0.00     0.174 HD
ATOM     13  C           0     136.738 133.275 145.089  0.00  0.00     0.217 C 
ATOM     14  N           0     136.914 134.240 146.187  0.00  0.00    -0.191 N 
ATOM     15  N           0     136.319 133.951 143.861  0.00  0.00    -0.183 N 
ATOM     16  C           0     137.554 134.512 143.283  0.00  0.00     0.150 C 
ATOM     17  C           0     138.628 133.432 143.552  0.00  0.00     0.093 C 
ATOM     18  C           0     138.085 132.614 144.753  0.00  0.00     0.209 C 
ATOM     19  H           0     133.173 133.449 143.979  0.00  0.00     0.178 HD
ATOM     20  H           0     134.383 132.663 147.303  0.00  0.00     0.178 HD
ATOM     21  H           0     137.505 135.008 146.178  0.00  0.00     0.180 HD
ENDROOT
BRANCH  18  22
ATOM     22  O           0     138.981 132.704 145.862  0.00  0.00    -0.362 OA
ATOM     23  H           0     139.469 133.533 145.761  0.00  0.00     0.213 HD
ENDBRANCH  18  22
BRANCH  18  24
ATOM     24  O           0     137.889 131.250 144.378  0.00  0.00    -0.362 OA
ATOM     25  H           0     138.460 130.717 144.951  0.00  0.00     0.213 HD
ENDBRANCH  18  24
BRANCH   6  26
ATOM     26  C           0     135.022 130.981 143.616  0.00  0.00     0.192 C 
BRANCH  26  27
ATOM     27  O           0     133.988 130.807 142.645  0.00  0.00    -0.399 OA
ATOM     28  H           0     133.313 131.473 142.833  0.00  0.00     0.209 HD
ENDBRANCH  26  27
ENDBRANCH   6  26
TORSDOF 4
ENDMDL
MODEL 6
REMARK VINA RESULT:      -6.3      2.463      3.778
REMARK  4 active torsions:
REMARK  status: ('A' for Active; 'I' for Inactive)
REMARK    1  A    between atoms: C_6  and  C_7 
REMARK    2  A    between atoms: C_7  and  O_8 
REMARK    3  A    between atoms: C_20  and  O_21 
REMARK    4  A    between atoms: C_20  and  O_22 
ROOT
ATOM      1  N           0     139.074 130.827 145.753  0.00  0.00    -0.235 N 
ATOM      2  H           0     139.191 130.246 146.520  0.00  0.00     0.174 HD
ATOM      3  H           0     139.801 130.951 145.122  0.00  0.00     0.174 HD
ATOM      4  C           0     137.939 131.439 145.567  0.00  0.00     0.672 C 
ATOM      5  N           0     136.871 131.292 146.435  0.00  0.00    -0.218 N 
ATOM      6  C           0     135.922 132.395 146.559  0.00  0.00     0.150 C 
ATOM      7  C           0     135.408 132.876 145.217  0.00  0.00     0.180 C 
ATOM      8  N           0     134.396 131.924 144.714  0.00  0.00    -0.216 N 
ATOM      9  C           0     134.588 131.791 143.360  0.00  0.00     0.670 C 
ATOM     10  N           0     133.689 131.334 142.534  0.00  0.00    -0.235 N 
ATOM     11  H           0     132.819 131.064 142.865  0.00  0.00     0.174 HD
ATOM     12  H           0     133.891 131.267 141.587  0.00  0.00     0.174 HD
ATOM     13  C           0     136.461 132.904 144.120  0.00  0.00     0.217 C 
ATOM     14  N           0     135.845 132.198 142.985  0.00  0.00    -0.191 N 
ATOM     15  N           0     137.727 132.276 144.502  0.00  0.00    -0.183 N 
ATOM     16  C           0     138.720 132.783 143.537  0.00  0.00     0.150 C 
ATOM     17  C           0     138.325 134.263 143.322  0.00  0.00     0.093 C 
ATOM     18  C           0     136.825 134.340 143.708  0.00  0.00     0.209 C 
ATOM     19  H           0     136.757 130.476 146.947  0.00  0.00     0.178 HD
ATOM     20  H           0     133.719 131.474 145.242  0.00  0.00     0.178 HD
ATOM     21  H           0     136.254 132.048 142.119  0.00  0.00     0.180 HD
ENDROOT
BRANCH  18  22
ATOM     22  O           0     136.043 134.755 142.586  0.00  0.00    -0.362 OA
ATOM     23  H           0     135.961 133.988 142.003  0.00  0.00     0.213 HD
ENDBRANCH  18  22
BRANCH  18  24
ATOM     24  O           0     136.638 135.234 144.806  0.00  0.00    -0.362 OA
ATOM     25  H           0     136.195 134.732 145.504  0.00  0.00     0.213 HD
ENDBRANCH  18  24
BRANCH   6  26
ATOM     26  C           0     136.611 133.561 147.270  0.00  0.00     0.192 C 
BRANCH  26  27
ATOM     27  O           0     135.733 134.689 147.297  0.00  0.00    -0.399 OA
ATOM     28  H           0     135.739 135.025 148.203  0.00  0.00     0.209 HD
ENDBRANCH  26  27
ENDBRANCH   6  26
TORSDOF 4
ENDMDL
MODEL 7
REMARK VINA RESULT:      -6.2      8.409     10.737
REMARK  4 active torsions:
REMARK  status: ('A' for Active; 'I' for Inactive)
REMARK    1  A    between atoms: C_6  and  C_7 
REMARK    2  A    between atoms: C_7  and  O_8 
REMARK    3  A    between atoms: C_20  and  O_21 
REMARK    4  A    between atoms: C_20  and  O_22 
ROOT
ATOM      1  N           0     132.249 137.428 132.544  0.00  0.00    -0.235 N 
ATOM      2  H           0     131.491 138.026 132.448  0.00  0.00     0.174 HD
ATOM      3  H           0     133.005 137.503 131.941  0.00  0.00     0.174 HD
ATOM      4  C           0     132.253 136.529 133.487  0.00  0.00     0.672 C 
ATOM      5  N           0     131.201 136.387 134.376  0.00  0.00    -0.218 N 
ATOM      6  C           0     130.955 135.068 134.953  0.00  0.00     0.150 C 
ATOM      7  C           0     132.202 134.454 135.557  0.00  0.00     0.180 C 
ATOM      8  N           0     132.473 135.090 136.863  0.00  0.00    -0.216 N 
ATOM      9  C           0     133.832 135.259 136.967  0.00  0.00     0.670 C 
ATOM     10  N           0     134.462 135.447 138.093  0.00  0.00    -0.235 N 
ATOM     11  H           0     133.969 135.473 138.927  0.00  0.00     0.174 HD
ATOM     12  H           0     135.426 135.560 138.096  0.00  0.00     0.174 HD
ATOM     13  C           0     133.470 134.705 134.757  0.00  0.00     0.217 C 
ATOM     14  N           0     134.444 135.208 135.740  0.00  0.00    -0.191 N 
ATOM     15  N           0     133.297 135.657 133.659  0.00  0.00    -0.183 N 
ATOM     16  C           0     134.446 135.432 132.763  0.00  0.00     0.150 C 
ATOM     17  C           0     134.649 133.899 132.777  0.00  0.00     0.093 C 
ATOM     18  C           0     134.003 133.420 134.103  0.00  0.00     0.209 C 
ATOM     19  H           0     130.642 137.144 134.608  0.00  0.00     0.178 HD
ATOM     20  H           0     131.813 135.342 137.526  0.00  0.00     0.178 HD
ATOM     21  H           0     135.363 135.456 135.554  0.00  0.00     0.180 HD
ENDROOT
BRANCH  18  22
ATOM     22  O           0     134.982 132.798 134.938  0.00  0.00    -0.362 OA
ATOM     23  H           0     135.408 133.505 135.442  0.00  0.00     0.213 HD
ENDBRANCH  18  22
BRANCH  18  24
ATOM     24  O           0     132.929 132.517 133.836  0.00  0.00    -0.362 OA
ATOM     25  H           0     132.275 133.006 133.316  0.00  0.00     0.213 HD
ENDBRANCH  18  24
BRANCH   6  26
ATOM     26  C           0     130.431 134.139 133.856  0.00  0.00     0.192 C 
BRANCH  26  27
ATOM     27  O           0     130.180 132.844 134.406  0.00  0.00    -0.399 OA
ATOM     28  H           0     129.956 132.975 135.337  0.00  0.00     0.209 HD
ENDBRANCH  26  27
ENDBRANCH   6  26
TORSDOF 4
ENDMDL
MODEL 8
REMARK VINA RESULT:      -6.0      9.497     11.095
REMARK  4 active torsions:
REMARK  status: ('A' for Active; 'I' for Inactive)
REMARK    1  A    between atoms: C_6  and  C_7 
REMARK    2  A    between atoms: C_7  and  O_8 
REMARK    3  A    between atoms: C_20  and  O_21 
REMARK    4  A    between atoms: C_20  and  O_22 
ROOT
ATOM      1  N           0     134.483 132.882 132.625  0.00  0.00    -0.235 N 
ATOM      2  H           0     134.524 132.131 132.012  0.00  0.00     0.174 HD
ATOM      3  H           0     135.294 133.356 132.867  0.00  0.00     0.174 HD
ATOM      4  C           0     133.337 133.254 133.122  0.00  0.00     0.672 C 
ATOM      5  N           0     132.152 132.613 132.804  0.00  0.00    -0.218 N 
ATOM      6  C           0     131.073 132.625 133.788  0.00  0.00     0.150 C 
ATOM      7  C           0     130.762 134.019 134.296  0.00  0.00     0.180 C 
ATOM      8  N           0     129.980 134.746 133.274  0.00  0.00    -0.216 N 
ATOM      9  C           0     130.434 136.042 133.249  0.00  0.00     0.670 C 
ATOM     10  N           0     129.763 137.043 132.752  0.00  0.00    -0.235 N 
ATOM     11  H           0     128.884 136.896 132.368  0.00  0.00     0.174 HD
ATOM     12  H           0     130.142 137.936 132.767  0.00  0.00     0.174 HD
ATOM     13  C           0     131.989 134.892 134.507  0.00  0.00     0.217 C 
ATOM     14  N           0     131.681 136.153 133.812  0.00  0.00    -0.191 N 
ATOM     15  N           0     133.228 134.304 133.997  0.00  0.00    -0.183 N 
ATOM     16  C           0     134.315 135.039 134.669  0.00  0.00     0.150 C 
ATOM     17  C           0     133.794 135.262 136.108  0.00  0.00     0.093 C 
ATOM     18  C           0     132.250 135.167 135.997  0.00  0.00     0.209 C 
ATOM     19  H           0     132.043 132.167 131.950  0.00  0.00     0.178 HD
ATOM     20  H           0     129.275 134.376 132.721  0.00  0.00     0.178 HD
ATOM     21  H           0     132.257 136.931 133.764  0.00  0.00     0.180 HD
ENDROOT
BRANCH  18  22
ATOM     22  O           0     131.645 136.398 136.396  0.00  0.00    -0.362 OA
ATOM     23  H           0     131.494 136.339 137.350  0.00  0.00     0.213 HD
ENDBRANCH  18  22
BRANCH  18  24
ATOM     24  O           0     131.759 134.088 136.795  0.00  0.00    -0.362 OA
ATOM     25  H           0     131.768 134.392 137.713  0.00  0.00     0.213 HD
ENDBRANCH  18  24
BRANCH   6  26
ATOM     26  C           0     131.477 131.747 134.974  0.00  0.00     0.192 C 
BRANCH  26  27
ATOM     27  O           0     130.351 131.561 135.835  0.00  0.00    -0.399 OA
ATOM     28  H           0     129.622 131.253 135.280  0.00  0.00     0.209 HD
ENDBRANCH  26  27
ENDBRANCH   6  26
TORSDOF 4
ENDMDL
MODEL 9
REMARK VINA RESULT:      -6.0      2.301      3.296
REMARK  4 active torsions:
REMARK  status: ('A' for Active; 'I' for Inactive)
REMARK    1  A    between atoms: C_6  and  C_7 
REMARK    2  A    between atoms: C_7  and  O_8 
REMARK    3  A    between atoms: C_20  and  O_21 
REMARK    4  A    between atoms: C_20  and  O_22 
ROOT
ATOM      1  N           0     136.266 135.136 147.908  0.00  0.00    -0.235 N 
ATOM      2  H           0     135.659 135.891 147.891  0.00  0.00     0.174 HD
ATOM      3  H           0     136.877 135.020 148.653  0.00  0.00     0.174 HD
ATOM      4  C           0     136.260 134.274 146.931  0.00  0.00     0.672 C 
ATOM      5  N           0     135.405 134.392 145.848  0.00  0.00    -0.218 N 
ATOM      6  C           0     135.829 133.836 144.567  0.00  0.00     0.150 C 
ATOM      7  C           0     136.292 132.397 144.679  0.00  0.00     0.180 C 
ATOM      8  N           0     135.111 131.514 144.790  0.00  0.00    -0.216 N 
ATOM      9  C           0     135.412 130.533 145.703  0.00  0.00     0.670 C 
ATOM     10  N           0     134.777 129.398 145.793  0.00  0.00    -0.235 N 
ATOM     11  H           0     134.043 129.203 145.190  0.00  0.00     0.174 HD
ATOM     12  H           0     135.042 128.747 146.462  0.00  0.00     0.174 HD
ATOM     13  C           0     137.092 132.097 145.936  0.00  0.00     0.217 C 
ATOM     14  N           0     136.461 130.897 146.509  0.00  0.00    -0.191 N 
ATOM     15  N           0     137.104 133.194 146.905  0.00  0.00    -0.183 N 
ATOM     16  C           0     138.245 132.915 147.796  0.00  0.00     0.150 C 
ATOM     17  C           0     139.339 132.357 146.855  0.00  0.00     0.093 C 
ATOM     18  C           0     138.570 131.812 145.623  0.00  0.00     0.209 C 
ATOM     19  H           0     134.546 134.833 145.940  0.00  0.00     0.178 HD
ATOM     20  H           0     134.276 131.610 144.307  0.00  0.00     0.178 HD
ATOM     21  H           0     136.741 130.438 147.316  0.00  0.00     0.180 HD
ENDROOT
BRANCH  18  22
ATOM     22  O           0     138.793 130.408 145.478  0.00  0.00    -0.362 OA
ATOM     23  H           0     139.621 130.207 145.936  0.00  0.00     0.213 HD
ENDBRANCH  18  22
BRANCH  18  24
ATOM     24  O           0     138.970 132.506 144.440  0.00  0.00    -0.362 OA
ATOM     25  H           0     139.464 131.874 143.898  0.00  0.00     0.213 HD
ENDBRANCH  18  24
BRANCH   6  26
ATOM     26  C           0     136.980 134.682 144.019  0.00  0.00     0.192 C 
BRANCH  26  27
ATOM     27  O           0     136.494 135.978 143.663  0.00  0.00    -0.399 OA
ATOM     28  H           0     137.010 136.271 142.901  0.00  0.00     0.209 HD
ENDBRANCH  26  27
ENDBRANCH   6  26
TORSDOF 4
ENDMDL
