# created with PyMOL 2.3.4
@<TRIPOS>MOLECULE
ligand_out_0001
68 72 1                 
SMALL
USER_CHARGES
@<TRIPOS>ATOM
1	   N	141.030	132.505	145.673	N.3	1	UNK0	-0.191	
2	   N	141.088	131.118	150.433	N.3	1	UNK0	-0.191	
3	   N	139.808	135.290	149.576	N.3	1	UNK0	-0.191	
4	   N	133.272	133.647	140.758	N.3	1	UNK0	-0.385	
5	   N	133.327	135.916	135.266	N.pl3	1	UNK0	-0.361	
6	   N	134.921	131.037	131.388	N.pl3	1	UNK0	-0.337	
7	   N	132.091	127.789	133.429	N.3	1	UNK0	-0.218	
8	   N	130.278	126.456	132.740	N.3	1	UNK0	-0.235	
9	   N	130.124	128.790	132.677	N.3	1	UNK0	-0.183	
10	   N	129.871	130.666	134.184	N.3	1	UNK0	-0.191	
11	   N	132.066	130.566	134.760	N.3	1	UNK0	-0.216	
12	   N	130.568	131.716	136.184	N.3	1	UNK0	-0.235	
13	   C	137.440	131.257	144.997	C.3	1	UNK0	0.012	
14	   C	137.649	131.592	146.340	C.3	1	UNK0	-0.000	
15	   C	136.648	131.504	147.470	C.3	1	UNK0	0.089	
16	   C	135.447	132.409	147.184	C.3	1	UNK0	0.051	
17	   C	136.187	130.057	147.656	C.3	1	UNK0	0.051	
18	   C	138.825	132.073	146.915	C.3	1	UNK0	0.089	
19	   C	140.055	132.313	146.223	C.3	1	UNK0	0.103	
20	   C	138.601	132.286	148.294	C.2	1	UNK0	0.123	
21	   C	139.563	132.765	149.185	C.3	1	UNK0	0.159	
22	   C	140.414	131.847	149.881	C.3	1	UNK0	0.113	
23	   C	139.699	134.173	149.402	C.3	1	UNK0	0.113	
24	   C	136.226	130.794	144.593	C.3	1	UNK0	0.012	
25	   C	135.455	131.537	143.593	C.3	1	UNK0	-0.036	
26	   C	135.953	132.742	143.074	C.3	1	UNK0	0.013	
27	   C	135.232	133.432	142.142	C.3	1	UNK0	0.030	
28	   C	134.004	132.940	141.706	C.3	1	UNK0	0.029	
29	   C	133.503	131.747	142.222	C.3	1	UNK0	0.030	
30	   C	134.219	131.048	143.150	C.3	1	UNK0	0.013	
31	   C	131.868	133.309	140.515	C.3	1	UNK0	0.149	
32	   C	133.906	134.730	140.002	C.3	1	UNK0	0.123	
33	   C	133.061	135.054	138.768	C.3	1	UNK0	0.029	
34	   C	133.981	135.283	137.567	C.3	1	UNK0	0.104	
35	   C	133.209	135.051	136.292	C.2	1	UNK0	0.217	
36	   C	132.578	135.691	134.028	C.3	1	UNK0	0.122	
37	   C	133.522	135.158	132.949	C.3	1	UNK0	0.020	
38	   C	132.740	134.270	131.980	C.3	1	UNK0	0.002	
39	   C	133.716	133.555	131.042	C.3	1	UNK0	0.002	
40	   C	135.087	133.454	131.714	C.3	1	UNK0	0.020	
41	   C	135.804	132.194	131.225	C.3	1	UNK0	0.125	
42	   C	135.418	129.789	131.265	C.2	1	UNK0	0.360	
43	   C	133.176	128.920	131.569	C.2	1	UNK0	0.208	
44	   C	132.829	128.992	133.057	C.3	1	UNK0	0.151	
45	   C	130.805	127.631	132.941	C.3	1	UNK0	0.672	
46	   C	130.560	130.152	132.989	C.3	1	UNK0	0.217	
47	   C	128.837	128.945	131.974	C.3	1	UNK0	0.150	
48	   C	132.042	130.262	133.313	C.3	1	UNK0	0.180	
49	   C	130.175	130.995	131.761	C.3	1	UNK0	0.209	
50	   C	130.819	131.025	135.109	C.3	1	UNK0	0.670	
51	   C	129.034	130.195	131.083	C.3	1	UNK0	0.093	
52	   O	137.341	131.958	148.637	O.2	1	UNK0	-0.332	
53	   O	132.482	134.085	136.191	O.2	1	UNK0	-0.274	
54	   O	136.596	129.625	131.020	O.co2	1	UNK0	-0.239	
55	   O	134.606	128.725	131.414	O.2	1	UNK0	-0.302	
56	   O	129.710	132.285	132.162	O.2	1	UNK0	-0.362	
57	   O	131.290	131.120	130.876	O.2	1	UNK0	-0.362	
58	   H	133.908	136.689	135.348	 H	1	UNK0	0.162	
59	   H	133.980	131.167	131.582	 H	1	UNK0	0.164	
60	   H	132.491	127.116	134.002	 H	1	UNK0	0.178	
61	   H	130.790	125.655	132.934	 H	1	UNK0	0.174	
62	   H	129.373	126.382	132.401	 H	1	UNK0	0.174	
63	   H	132.825	130.462	135.355	 H	1	UNK0	0.178	
64	   H	131.286	131.937	136.798	 H	1	UNK0	0.174	
65	   H	129.663	132.010	136.372	 H	1	UNK0	0.174	
66	   H	128.911	130.740	134.297	 H	1	UNK0	0.180	
67	   H	129.109	132.146	132.907	 H	1	UNK0	0.213	
68	   H	131.562	132.048	130.897	 H	1	UNK0	0.213	
@<TRIPOS>BOND
1 4 31 1
2 4 32 1
3 5 36 1
4 5 58 1
5 6 42 1
6 6 59 1
7 7 45 1
8 7 60 1
9 8 61 1
10 8 62 1
11 9 46 1
12 9 47 1
13 10 50 1
14 10 66 1
15 11 50 1
16 11 63 1
17 12 64 1
18 12 65 1
19 13 14 1
20 13 24 1
21 14 15 1
22 14 18 1
23 15 16 1
24 15 17 1
25 15 52 2
26 18 19 1
27 18 20 1
28 1 19 1
29 20 21 1
30 21 22 1
31 21 23 1
32 2 22 1
33 3 23 1
34 24 25 1
35 25 26 1
36 25 30 1
37 26 27 1
38 27 28 1
39 4 28 1
40 28 29 1
41 29 30 1
42 32 33 1
43 33 34 1
44 34 35 1
45 5 35 1
46 35 53 2
47 36 37 1
48 37 38 1
49 38 39 1
50 39 40 1
51 40 41 1
52 6 41 1
53 42 54 2
54 42 55 2
55 43 44 1
56 7 44 1
57 44 48 1
58 8 45 1
59 9 45 1
60 10 46 1
61 46 48 1
62 46 49 1
63 47 51 1
64 11 48 1
65 49 51 1
66 49 56 2
67 49 57 2
68 12 50 1
69 20 52 2
70 43 55 2
71 56 67 1
72 57 68 1
@<TRIPOS>SUBSTRUCTURE
1	UNK0	1	GROUP	1 ****	UNK
