# created with PyMOL 2.3.4
@<TRIPOS>MOLECULE
ligand_out_0001
32 34 1                 
SMALL
USER_CHARGES
@<TRIPOS>ATOM
1	   N	134.964	136.767	143.157	N.3	1	UNK0	-0.235	
2	   N	133.734	134.767	143.003	N.3	1	UNK0	-0.218	
3	   N	134.051	132.160	144.613	N.3	1	UNK0	-0.215	
4	   N	134.803	131.631	146.793	N.3	1	UNK0	-0.235	
5	   N	136.039	133.005	145.318	N.3	1	UNK0	-0.187	
6	   N	135.987	134.709	143.601	N.3	1	UNK0	-0.183	
7	   N	133.568	136.038	139.880	N.pl3	1	UNK0	-0.346	
8	   C	134.901	135.469	143.253	C.3	1	UNK0	0.672	
9	   C	133.842	133.394	142.517	C.3	1	UNK0	0.151	
10	   C	134.759	132.542	143.373	C.3	1	UNK0	0.180	
11	   C	134.955	132.229	145.645	C.3	1	UNK0	0.672	
12	   C	135.999	133.269	143.870	C.3	1	UNK0	0.219	
13	   C	137.064	133.484	146.249	C.3	1	UNK0	0.171	
14	   C	137.391	135.140	143.727	C.3	1	UNK0	0.150	
15	   C	138.206	133.980	143.108	C.3	1	UNK0	0.093	
16	   C	137.281	132.740	143.206	C.3	1	UNK0	0.210	
17	   C	134.384	133.418	141.087	C.2	1	UNK0	0.208	
18	   C	133.410	134.806	139.356	C.2	1	UNK0	0.358	
19	   O	133.307	133.737	140.167	O.2	1	UNK0	-0.302	
20	   O	133.360	134.661	138.149	O.co2	1	UNK0	-0.239	
21	   O	137.887	131.730	144.014	O.2	1	UNK0	-0.362	
22	   O	136.992	132.231	141.903	O.2	1	UNK0	-0.362	
23	   H	134.177	137.273	142.905	 H	1	UNK0	0.174	
24	   H	135.798	137.227	143.344	 H	1	UNK0	0.174	
25	   H	134.011	131.096	146.959	 H	1	UNK0	0.174	
26	   H	135.481	131.721	147.481	 H	1	UNK0	0.174	
27	   H	132.867	135.178	143.148	 H	1	UNK0	0.178	
28	   H	133.118	131.906	144.684	 H	1	UNK0	0.178	
29	   H	133.608	136.153	140.842	 H	1	UNK0	0.161	
30	   H	133.642	136.809	139.296	 H	1	UNK0	0.161	
31	   H	137.190	131.370	144.580	 H	1	UNK0	0.213	
32	   H	136.422	131.458	142.025	 H	1	UNK0	0.213	
@<TRIPOS>BOND
1 1 8 1
2 1 23 1
3 1 24 1
4 2 9 1
5 2 27 1
6 3 11 1
7 3 28 1
8 4 25 1
9 4 26 1
10 5 13 1
11 6 14 1
12 7 29 1
13 7 30 1
14 2 8 1
15 6 8 1
16 9 10 1
17 9 17 1
18 3 10 1
19 10 12 1
20 4 11 1
21 5 11 1
22 5 12 1
23 6 12 1
24 12 16 1
25 14 15 1
26 15 16 1
27 16 21 2
28 16 22 2
29 17 19 2
30 7 18 1
31 18 20 2
32 18 19 2
33 21 31 1
34 22 32 1
@<TRIPOS>SUBSTRUCTURE
1	UNK0	1	GROUP	1 ****	UNK
