MODEL 1
REMARK VINA RESULT:      -8.1      0.000      0.000
REMARK  5 active torsions:
REMARK  status: ('A' for Active; 'I' for Inactive)
REMARK    1  A    between atoms: C_6  and  C_7 
REMARK    2  A    between atoms: C_7  and  O_8 
REMARK    3  A    between atoms: O_8  and  C_9 
REMARK       I    between atoms: C_9  and  N_10 
REMARK    4  A    between atoms: C_24  and  O_25 
REMARK    5  A    between atoms: C_24  and  O_26 
ROOT
ATOM      1  N           0     134.964 136.767 143.157  0.00  0.00    -0.235 N 
ATOM      2  H           0     134.177 137.273 142.905  0.00  0.00     0.174 HD
ATOM      3  H           0     135.798 137.227 143.344  0.00  0.00     0.174 HD
ATOM      4  C           0     134.901 135.469 143.253  0.00  0.00     0.672 C 
ATOM      5  N           0     133.734 134.767 143.003  0.00  0.00    -0.218 N 
ATOM      6  C           0     133.842 133.394 142.517  0.00  0.00     0.151 C 
ATOM      7  C           0     134.759 132.542 143.373  0.00  0.00     0.180 C 
ATOM      8  N           0     134.051 132.160 144.613  0.00  0.00    -0.215 N 
ATOM      9  C           0     134.955 132.229 145.645  0.00  0.00     0.672 C 
ATOM     10  N           0     134.803 131.631 146.793  0.00  0.00    -0.235 N 
ATOM     11  H           0     134.011 131.096 146.959  0.00  0.00     0.174 HD
ATOM     12  H           0     135.481 131.721 147.481  0.00  0.00     0.174 HD
ATOM     13  C           0     135.999 133.269 143.870  0.00  0.00     0.219 C 
ATOM     14  N           0     136.039 133.005 145.318  0.00  0.00    -0.187 N 
ATOM     15  C           0     137.064 133.484 146.249  0.00  0.00     0.171 C 
ATOM     16  N           0     135.987 134.709 143.601  0.00  0.00    -0.183 N 
ATOM     17  C           0     137.391 135.140 143.727  0.00  0.00     0.150 C 
ATOM     18  C           0     138.206 133.980 143.108  0.00  0.00     0.093 C 
ATOM     19  C           0     137.281 132.740 143.206  0.00  0.00     0.210 C 
ATOM     20  H           0     132.867 135.178 143.148  0.00  0.00     0.178 HD
ATOM     21  H           0     133.118 131.906 144.684  0.00  0.00     0.178 HD
ENDROOT
BRANCH   6  22
ATOM     22  C           0     134.384 133.418 141.087  0.00  0.00     0.208 C 
BRANCH  22  23
ATOM     23  O           0     133.307 133.737 140.167  0.00  0.00    -0.302 OA
BRANCH  23  24
ATOM     24  C           0     133.410 134.806 139.356  0.00  0.00     0.358 C 
ATOM     25  N           0     133.568 136.038 139.880  0.00  0.00    -0.346 N 
ATOM     26  H           0     133.608 136.153 140.842  0.00  0.00     0.161 HD
ATOM     27  H           0     133.642 136.809 139.296  0.00  0.00     0.161 HD
ATOM     28  O           0     133.360 134.661 138.149  0.00  0.00    -0.239 OA
ENDBRANCH  23  24
ENDBRANCH  22  23
ENDBRANCH   6  22
BRANCH  19  29
ATOM     29  O           0     137.887 131.730 144.014  0.00  0.00    -0.362 OA
ATOM     30  H           0     137.190 131.370 144.580  0.00  0.00     0.213 HD
ENDBRANCH  19  29
BRANCH  19  31
ATOM     31  O           0     136.992 132.231 141.903  0.00  0.00    -0.362 OA
ATOM     32  H           0     136.422 131.458 142.025  0.00  0.00     0.213 HD
ENDBRANCH  19  31
TORSDOF 5
ENDMDL
MODEL 2
REMARK VINA RESULT:      -7.5      1.764      5.709
REMARK  5 active torsions:
REMARK  status: ('A' for Active; 'I' for Inactive)
REMARK    1  A    between atoms: C_6  and  C_7 
REMARK    2  A    between atoms: C_7  and  O_8 
REMARK    3  A    between atoms: O_8  and  C_9 
REMARK       I    between atoms: C_9  and  N_10 
REMARK    4  A    between atoms: C_24  and  O_25 
REMARK    5  A    between atoms: C_24  and  O_26 
ROOT
ATOM      1  N           0     134.721 131.904 146.734  0.00  0.00    -0.235 N 
ATOM      2  H           0     134.855 132.040 147.685  0.00  0.00     0.174 HD
ATOM      3  H           0     134.139 131.192 146.423  0.00  0.00     0.174 HD
ATOM      4  C           0     135.317 132.681 145.874  0.00  0.00     0.672 C 
ATOM      5  N           0     136.151 133.712 146.267  0.00  0.00    -0.218 N 
ATOM      6  C           0     137.228 134.114 145.366  0.00  0.00     0.151 C 
ATOM      7  C           0     136.740 134.381 143.955  0.00  0.00     0.180 C 
ATOM      8  N           0     136.070 135.699 143.914  0.00  0.00    -0.215 N 
ATOM      9  C           0     134.970 135.580 143.100  0.00  0.00     0.672 C 
ATOM     10  N           0     134.358 136.587 142.544  0.00  0.00    -0.235 N 
ATOM     11  H           0     134.676 137.491 142.696  0.00  0.00     0.174 HD
ATOM     12  H           0     133.585 136.433 141.979  0.00  0.00     0.174 HD
ATOM     13  C           0     135.670 133.414 143.474  0.00  0.00     0.219 C 
ATOM     14  N           0     134.595 134.269 142.944  0.00  0.00    -0.187 N 
ATOM     15  C           0     133.342 133.800 142.347  0.00  0.00     0.171 C 
ATOM     16  N           0     135.163 132.524 144.521  0.00  0.00    -0.183 N 
ATOM     17  C           0     134.514 131.411 143.806  0.00  0.00     0.150 C 
ATOM     18  C           0     135.429 131.153 142.585  0.00  0.00     0.093 C 
ATOM     19  C           0     136.193 132.483 142.366  0.00  0.00     0.210 C 
ATOM     20  H           0     136.023 134.157 147.120  0.00  0.00     0.178 HD
ATOM     21  H           0     136.356 136.501 144.377  0.00  0.00     0.178 HD
ENDROOT
BRANCH   6  22
ATOM     22  C           0     138.276 133.001 145.321  0.00  0.00     0.208 C 
BRANCH  22  23
ATOM     23  O           0     138.628 132.613 146.675  0.00  0.00    -0.302 OA
BRANCH  23  24
ATOM     24  C           0     138.684 131.310 147.009  0.00  0.00     0.358 C 
ATOM     25  N           0     138.139 130.382 146.197  0.00  0.00    -0.346 N 
ATOM     26  H           0     137.707 130.653 145.373  0.00  0.00     0.161 HD
ATOM     27  H           0     138.179 129.443 146.438  0.00  0.00     0.161 HD
ATOM     28  O           0     139.226 130.970 148.043  0.00  0.00    -0.239 OA
ENDBRANCH  23  24
ENDBRANCH  22  23
ENDBRANCH   6  22
BRANCH  19  29
ATOM     29  O           0     135.896 133.021 141.076  0.00  0.00    -0.362 OA
ATOM     30  H           0     136.630 133.605 140.841  0.00  0.00     0.213 HD
ENDBRANCH  19  29
BRANCH  19  31
ATOM     31  O           0     137.599 132.280 142.511  0.00  0.00    -0.362 OA
ATOM     32  H           0     137.731 131.332 142.655  0.00  0.00     0.213 HD
ENDBRANCH  19  31
TORSDOF 5
ENDMDL
MODEL 3
REMARK VINA RESULT:      -6.9      2.851      4.750
REMARK  5 active torsions:
REMARK  status: ('A' for Active; 'I' for Inactive)
REMARK    1  A    between atoms: C_6  and  C_7 
REMARK    2  A    between atoms: C_7  and  O_8 
REMARK    3  A    between atoms: O_8  and  C_9 
REMARK       I    between atoms: C_9  and  N_10 
REMARK    4  A    between atoms: C_24  and  O_25 
REMARK    5  A    between atoms: C_24  and  O_26 
ROOT
ATOM      1  N           0     139.644 130.605 146.034  0.00  0.00    -0.235 N 
ATOM      2  H           0     140.397 130.757 145.443  0.00  0.00     0.174 HD
ATOM      3  H           0     139.677 129.888 146.687  0.00  0.00     0.174 HD
ATOM      4  C           0     138.590 131.367 145.957  0.00  0.00     0.672 C 
ATOM      5  N           0     138.497 132.405 145.046  0.00  0.00    -0.218 N 
ATOM      6  C           0     137.172 132.793 144.571  0.00  0.00     0.151 C 
ATOM      7  C           0     136.193 133.036 145.702  0.00  0.00     0.180 C 
ATOM      8  N           0     136.474 134.353 146.314  0.00  0.00    -0.215 N 
ATOM      9  C           0     136.323 134.220 147.672  0.00  0.00     0.672 C 
ATOM     10  N           0     136.135 135.217 148.490  0.00  0.00    -0.235 N 
ATOM     11  H           0     136.094 136.124 148.146  0.00  0.00     0.174 HD
ATOM     12  H           0     136.037 135.054 149.441  0.00  0.00     0.174 HD
ATOM     13  C           0     136.327 132.060 146.861  0.00  0.00     0.219 C 
ATOM     14  N           0     136.395 132.906 148.064  0.00  0.00    -0.187 N 
ATOM     15  C           0     136.514 132.427 149.444  0.00  0.00     0.171 C 
ATOM     16  N           0     137.499 131.188 146.766  0.00  0.00    -0.183 N 
ATOM     17  C           0     137.222 130.063 147.677  0.00  0.00     0.150 C 
ATOM     18  C           0     135.711 129.785 147.496  0.00  0.00     0.093 C 
ATOM     19  C           0     135.119 131.112 146.956  0.00  0.00     0.210 C 
ATOM     20  H           0     139.293 132.865 144.733  0.00  0.00     0.178 HD
ATOM     21  H           0     136.720 135.163 145.841  0.00  0.00     0.178 HD
ENDROOT
BRANCH   6  22
ATOM     22  C           0     136.623 131.680 143.676  0.00  0.00     0.208 C 
BRANCH  22  23
ATOM     23  O           0     135.320 132.066 143.166  0.00  0.00    -0.302 OA
BRANCH  23  24
ATOM     24  C           0     135.215 133.081 142.289  0.00  0.00     0.358 C 
ATOM     25  N           0     135.892 133.039 141.124  0.00  0.00    -0.346 N 
ATOM     26  H           0     136.455 132.276 140.919  0.00  0.00     0.161 HD
ATOM     27  H           0     135.817 133.770 140.491  0.00  0.00     0.161 HD
ATOM     28  O           0     134.509 134.037 142.546  0.00  0.00    -0.239 OA
ENDBRANCH  23  24
ENDBRANCH  22  23
ENDBRANCH   6  22
BRANCH  19  29
ATOM     29  O           0     134.144 131.628 147.864  0.00  0.00    -0.362 OA
ATOM     30  H           0     134.081 132.578 147.697  0.00  0.00     0.213 HD
ENDBRANCH  19  29
BRANCH  19  31
ATOM     31  O           0     134.542 130.912 145.665  0.00  0.00    -0.362 OA
ATOM     32  H           0     135.275 130.861 145.035  0.00  0.00     0.213 HD
ENDBRANCH  19  31
TORSDOF 5
ENDMDL
MODEL 4
REMARK VINA RESULT:      -6.9      2.962      4.483
REMARK  5 active torsions:
REMARK  status: ('A' for Active; 'I' for Inactive)
REMARK    1  A    between atoms: C_6  and  C_7 
REMARK    2  A    between atoms: C_7  and  O_8 
REMARK    3  A    between atoms: O_8  and  C_9 
REMARK       I    between atoms: C_9  and  N_10 
REMARK    4  A    between atoms: C_24  and  O_25 
REMARK    5  A    between atoms: C_24  and  O_26 
ROOT
ATOM      1  N           0     136.094 134.652 147.252  0.00  0.00    -0.235 N 
ATOM      2  H           0     135.632 135.372 146.795  0.00  0.00     0.174 HD
ATOM      3  H           0     136.574 134.831 148.076  0.00  0.00     0.174 HD
ATOM      4  C           0     136.066 133.445 146.764  0.00  0.00     0.672 C 
ATOM      5  N           0     135.391 133.138 145.595  0.00  0.00    -0.218 N 
ATOM      6  C           0     135.875 132.022 144.788  0.00  0.00     0.151 C 
ATOM      7  C           0     136.065 130.754 145.598  0.00  0.00     0.180 C 
ATOM      8  N           0     134.746 130.137 145.851  0.00  0.00    -0.215 N 
ATOM      9  C           0     134.754 129.656 147.138  0.00  0.00     0.672 C 
ATOM     10  N           0     133.928 128.752 147.587  0.00  0.00    -0.235 N 
ATOM     11  H           0     133.255 128.376 146.999  0.00  0.00     0.174 HD
ATOM     12  H           0     133.988 128.456 148.509  0.00  0.00     0.174 HD
ATOM     13  C           0     136.633 130.985 146.989  0.00  0.00     0.219 C 
ATOM     14  N           0     135.737 130.244 147.893  0.00  0.00    -0.187 N 
ATOM     15  C           0     135.875 130.147 149.349  0.00  0.00     0.171 C 
ATOM     16  N           0     136.709 132.397 147.370  0.00  0.00    -0.183 N 
ATOM     17  C           0     137.661 132.447 148.494  0.00  0.00     0.150 C 
ATOM     18  C           0     138.754 131.419 148.117  0.00  0.00     0.093 C 
ATOM     19  C           0     138.069 130.449 147.121  0.00  0.00     0.210 C 
ATOM     20  H           0     134.615 133.652 145.320  0.00  0.00     0.178 HD
ATOM     21  H           0     134.010 130.081 145.223  0.00  0.00     0.178 HD
ENDROOT
BRANCH   6  22
ATOM     22  C           0     137.215 132.411 144.161  0.00  0.00     0.208 C 
BRANCH  22  23
ATOM     23  O           0     136.990 133.371 143.096  0.00  0.00    -0.302 OA
BRANCH  23  24
ATOM     24  C           0     137.509 134.610 143.186  0.00  0.00     0.358 C 
ATOM     25  N           0     136.733 135.639 143.584  0.00  0.00    -0.346 N 
ATOM     26  H           0     135.802 135.486 143.804  0.00  0.00     0.161 HD
ATOM     27  H           0     137.107 136.532 143.649  0.00  0.00     0.161 HD
ATOM     28  O           0     138.677 134.802 142.909  0.00  0.00    -0.239 OA
ENDBRANCH  23  24
ENDBRANCH  22  23
ENDBRANCH   6  22
BRANCH  19  29
ATOM     29  O           0     138.064 129.119 147.645  0.00  0.00    -0.362 OA
ATOM     30  H           0     137.304 129.056 148.240  0.00  0.00     0.213 HD
ENDBRANCH  19  29
BRANCH  19  31
ATOM     31  O           0     138.730 130.486 145.856  0.00  0.00    -0.362 OA
ATOM     32  H           0     139.353 131.225 145.887  0.00  0.00     0.213 HD
ENDBRANCH  19  31
TORSDOF 5
ENDMDL
MODEL 5
REMARK VINA RESULT:      -6.8      1.774      1.939
REMARK  5 active torsions:
REMARK  status: ('A' for Active; 'I' for Inactive)
REMARK    1  A    between atoms: C_6  and  C_7 
REMARK    2  A    between atoms: C_7  and  O_8 
REMARK    3  A    between atoms: O_8  and  C_9 
REMARK       I    between atoms: C_9  and  N_10 
REMARK    4  A    between atoms: C_24  and  O_25 
REMARK    5  A    between atoms: C_24  and  O_26 
ROOT
ATOM      1  N           0     136.075 135.966 143.419  0.00  0.00    -0.235 N 
ATOM      2  H           0     135.387 136.535 143.040  0.00  0.00     0.174 HD
ATOM      3  H           0     136.994 136.276 143.459  0.00  0.00     0.174 HD
ATOM      4  C           0     135.766 134.787 143.881  0.00  0.00     0.672 C 
ATOM      5  N           0     134.470 134.302 143.852  0.00  0.00    -0.218 N 
ATOM      6  C           0     134.273 132.857 143.776  0.00  0.00     0.151 C 
ATOM      7  C           0     135.062 132.104 144.829  0.00  0.00     0.180 C 
ATOM      8  N           0     134.379 132.234 146.134  0.00  0.00    -0.215 N 
ATOM      9  C           0     135.347 132.397 147.095  0.00  0.00     0.672 C 
ATOM     10  N           0     135.160 132.184 148.367  0.00  0.00    -0.235 N 
ATOM     11  H           0     134.291 131.892 148.687  0.00  0.00     0.174 HD
ATOM     12  H           0     135.887 132.319 148.994  0.00  0.00     0.174 HD
ATOM     13  C           0     136.451 132.667 145.087  0.00  0.00     0.219 C 
ATOM     14  N           0     136.537 132.810 146.550  0.00  0.00    -0.187 N 
ATOM     15  C           0     137.697 133.305 147.296  0.00  0.00     0.171 C 
ATOM     16  N           0     136.703 133.945 144.420  0.00  0.00    -0.183 N 
ATOM     17  C           0     138.170 134.094 144.404  0.00  0.00     0.150 C 
ATOM     18  C           0     138.697 132.666 144.133  0.00  0.00     0.093 C 
ATOM     19  C           0     137.556 131.721 144.588  0.00  0.00     0.210 C 
ATOM     20  H           0     133.711 134.907 143.882  0.00  0.00     0.178 HD
ATOM     21  H           0     133.421 132.209 146.284  0.00  0.00     0.178 HD
ENDROOT
BRANCH   6  22
ATOM     22  C           0     134.710 132.371 142.393  0.00  0.00     0.208 C 
BRANCH  22  23
ATOM     23  O           0     133.539 132.022 141.610  0.00  0.00    -0.302 OA
BRANCH  23  24
ATOM     24  C           0     132.629 132.965 141.304  0.00  0.00     0.358 C 
ATOM     25  N           0     131.312 132.691 141.406  0.00  0.00    -0.346 N 
ATOM     26  H           0     131.022 131.814 141.700  0.00  0.00     0.161 HD
ATOM     27  H           0     130.656 133.370 141.185  0.00  0.00     0.161 HD
ATOM     28  O           0     132.993 134.065 140.935  0.00  0.00    -0.239 OA
ENDBRANCH  23  24
ENDBRANCH  22  23
ENDBRANCH   6  22
BRANCH  19  29
ATOM     29  O           0     138.006 130.870 145.645  0.00  0.00    -0.362 OA
ATOM     30  H           0     137.220 130.596 146.137  0.00  0.00     0.213 HD
ENDBRANCH  19  29
BRANCH  19  31
ATOM     31  O           0     137.085 130.942 143.487  0.00  0.00    -0.362 OA
ATOM     32  H           0     136.387 131.458 143.059  0.00  0.00     0.213 HD
ENDBRANCH  19  31
TORSDOF 5
ENDMDL
MODEL 6
REMARK VINA RESULT:      -6.8      2.606      4.398
REMARK  5 active torsions:
REMARK  status: ('A' for Active; 'I' for Inactive)
REMARK    1  A    between atoms: C_6  and  C_7 
REMARK    2  A    between atoms: C_7  and  O_8 
REMARK    3  A    between atoms: O_8  and  C_9 
REMARK       I    between atoms: C_9  and  N_10 
REMARK    4  A    between atoms: C_24  and  O_25 
REMARK    5  A    between atoms: C_24  and  O_26 
ROOT
ATOM      1  N           0     134.772 130.037 144.907  0.00  0.00    -0.235 N 
ATOM      2  H           0     134.413 129.700 144.072  0.00  0.00     0.174 HD
ATOM      3  H           0     134.534 129.610 145.746  0.00  0.00     0.174 HD
ATOM      4  C           0     135.579 131.060 144.905  0.00  0.00     0.672 C 
ATOM      5  N           0     135.952 131.700 143.735  0.00  0.00    -0.218 N 
ATOM      6  C           0     136.298 133.117 143.802  0.00  0.00     0.151 C 
ATOM      7  C           0     137.319 133.419 144.881  0.00  0.00     0.180 C 
ATOM      8  N           0     138.659 133.006 144.412  0.00  0.00    -0.215 N 
ATOM      9  C           0     139.317 132.444 145.479  0.00  0.00     0.672 C 
ATOM     10  N           0     140.610 132.299 145.549  0.00  0.00    -0.235 N 
ATOM     11  H           0     141.171 132.598 144.816  0.00  0.00     0.174 HD
ATOM     12  H           0     141.012 131.893 146.333  0.00  0.00     0.174 HD
ATOM     13  C           0     137.121 132.627 146.164  0.00  0.00     0.219 C 
ATOM     14  N           0     138.444 132.053 146.464  0.00  0.00    -0.187 N 
ATOM     15  C           0     138.773 131.214 147.619  0.00  0.00     0.171 C 
ATOM     16  N           0     136.107 131.577 146.059  0.00  0.00    -0.183 N 
ATOM     17  C           0     135.743 131.246 147.449  0.00  0.00     0.150 C 
ATOM     18  C           0     135.747 132.609 148.181  0.00  0.00     0.093 C 
ATOM     19  C           0     136.663 133.522 147.328  0.00  0.00     0.210 C 
ATOM     20  H           0     135.984 131.218 142.893  0.00  0.00     0.178 HD
ATOM     21  H           0     139.010 133.113 143.515  0.00  0.00     0.178 HD
ENDROOT
BRANCH   6  22
ATOM     22  C           0     135.029 133.923 144.086  0.00  0.00     0.208 C 
BRANCH  22  23
ATOM     23  O           0     135.251 135.314 143.737  0.00  0.00    -0.302 OA
BRANCH  23  24
ATOM     24  C           0     134.504 135.895 142.779  0.00  0.00     0.358 C 
ATOM     25  N           0     134.545 137.232 142.610  0.00  0.00    -0.346 N 
ATOM     26  H           0     135.112 137.775 143.179  0.00  0.00     0.161 HD
ATOM     27  H           0     134.006 137.650 141.920  0.00  0.00     0.161 HD
ATOM     28  O           0     133.793 135.214 142.066  0.00  0.00    -0.239 OA
ENDBRANCH  23  24
ENDBRANCH  22  23
ENDBRANCH   6  22
BRANCH  19  29
ATOM     29  O           0     137.785 133.960 148.098  0.00  0.00    -0.362 OA
ATOM     30  H           0     138.526 133.385 147.864  0.00  0.00     0.213 HD
ENDBRANCH  19  29
BRANCH  19  31
ATOM     31  O           0     135.929 134.643 146.833  0.00  0.00    -0.362 OA
ATOM     32  H           0     135.048 134.598 147.231  0.00  0.00     0.213 HD
ENDBRANCH  19  31
TORSDOF 5
ENDMDL
MODEL 7
REMARK VINA RESULT:      -6.5      2.534      3.932
REMARK  5 active torsions:
REMARK  status: ('A' for Active; 'I' for Inactive)
REMARK    1  A    between atoms: C_6  and  C_7 
REMARK    2  A    between atoms: C_7  and  O_8 
REMARK    3  A    between atoms: O_8  and  C_9 
REMARK       I    between atoms: C_9  and  N_10 
REMARK    4  A    between atoms: C_24  and  O_25 
REMARK    5  A    between atoms: C_24  and  O_26 
ROOT
ATOM      1  N           0     136.262 134.838 147.970  0.00  0.00    -0.235 N 
ATOM      2  H           0     135.472 135.390 147.875  0.00  0.00     0.174 HD
ATOM      3  H           0     136.912 135.036 148.663  0.00  0.00     0.174 HD
ATOM      4  C           0     136.450 133.825 147.171  0.00  0.00     0.672 C 
ATOM      5  N           0     135.550 133.499 146.172  0.00  0.00    -0.218 N 
ATOM      6  C           0     136.055 132.826 144.978  0.00  0.00     0.151 C 
ATOM      7  C           0     136.896 131.608 145.305  0.00  0.00     0.180 C 
ATOM      8  N           0     136.007 130.491 145.687  0.00  0.00    -0.215 N 
ATOM      9  C           0     136.602 129.825 146.730  0.00  0.00     0.672 C 
ATOM     10  N           0     136.306 128.606 147.085  0.00  0.00    -0.235 N 
ATOM     11  H           0     135.627 128.111 146.600  0.00  0.00     0.174 HD
ATOM     12  H           0     136.765 128.193 147.833  0.00  0.00     0.174 HD
ATOM     13  C           0     137.800 131.784 146.515  0.00  0.00     0.219 C 
ATOM     14  N           0     137.546 130.601 147.354  0.00  0.00    -0.187 N 
ATOM     15  C           0     138.194 130.302 148.634  0.00  0.00     0.171 C 
ATOM     16  N           0     137.555 133.019 147.262  0.00  0.00    -0.183 N 
ATOM     17  C           0     138.765 133.230 148.076  0.00  0.00     0.150 C 
ATOM     18  C           0     139.928 132.795 147.153  0.00  0.00     0.093 C 
ATOM     19  C           0     139.286 131.835 146.120  0.00  0.00     0.210 C 
ATOM     20  H           0     134.607 133.710 146.263  0.00  0.00     0.178 HD
ATOM     21  H           0     135.158 130.269 145.275  0.00  0.00     0.178 HD
ENDROOT
BRANCH   6  22
ATOM     22  C           0     136.908 133.813 144.179  0.00  0.00     0.208 C 
BRANCH  22  23
ATOM     23  O           0     136.065 134.530 143.239  0.00  0.00    -0.302 OA
BRANCH  23  24
ATOM     24  C           0     135.283 133.849 142.381  0.00  0.00     0.358 C 
ATOM     25  N           0     135.841 133.087 141.418  0.00  0.00    -0.346 N 
ATOM     26  H           0     136.806 133.031 141.345  0.00  0.00     0.161 HD
ATOM     27  H           0     135.278 132.597 140.800  0.00  0.00     0.161 HD
ATOM     28  O           0     134.073 133.920 142.473  0.00  0.00    -0.239 OA
ENDBRANCH  23  24
ENDBRANCH  22  23
ENDBRANCH   6  22
BRANCH  19  29
ATOM     29  O           0     139.877 130.537 146.213  0.00  0.00    -0.362 OA
ATOM     30  H           0     139.670 130.198 147.095  0.00  0.00     0.213 HD
ENDBRANCH  19  29
BRANCH  19  31
ATOM     31  O           0     139.431 132.356 144.798  0.00  0.00    -0.362 OA
ATOM     32  H           0     139.918 131.693 144.288  0.00  0.00     0.213 HD
ENDBRANCH  19  31
TORSDOF 5
ENDMDL
MODEL 8
REMARK VINA RESULT:      -6.5      3.998      6.868
REMARK  5 active torsions:
REMARK  status: ('A' for Active; 'I' for Inactive)
REMARK    1  A    between atoms: C_6  and  C_7 
REMARK    2  A    between atoms: C_7  and  O_8 
REMARK    3  A    between atoms: O_8  and  C_9 
REMARK       I    between atoms: C_9  and  N_10 
REMARK    4  A    between atoms: C_24  and  O_25 
REMARK    5  A    between atoms: C_24  and  O_26 
ROOT
ATOM      1  N           0     139.204 129.587 147.751  0.00  0.00    -0.235 N 
ATOM      2  H           0     139.347 128.644 147.926  0.00  0.00     0.174 HD
ATOM      3  H           0     139.916 130.224 147.919  0.00  0.00     0.174 HD
ATOM      4  C           0     138.059 129.998 147.284  0.00  0.00     0.672 C 
ATOM      5  N           0     137.015 129.127 147.024  0.00  0.00    -0.218 N 
ATOM      6  C           0     135.649 129.636 147.118  0.00  0.00     0.151 C 
ATOM      7  C           0     135.444 130.909 146.322  0.00  0.00     0.180 C 
ATOM      8  N           0     135.332 130.573 144.886  0.00  0.00    -0.215 N 
ATOM      9  C           0     136.008 131.539 144.180  0.00  0.00     0.672 C 
ATOM     10  N           0     135.829 131.778 142.912  0.00  0.00    -0.235 N 
ATOM     11  H           0     135.184 131.258 142.407  0.00  0.00     0.174 HD
ATOM     12  H           0     136.340 132.476 142.473  0.00  0.00     0.174 HD
ATOM     13  C           0     136.617 131.875 146.380  0.00  0.00     0.219 C 
ATOM     14  N           0     136.895 132.220 144.975  0.00  0.00    -0.187 N 
ATOM     15  C           0     137.936 133.139 144.507  0.00  0.00     0.171 C 
ATOM     16  N           0     137.808 131.320 147.027  0.00  0.00    -0.183 N 
ATOM     17  C           0     138.635 132.486 147.388  0.00  0.00     0.150 C 
ATOM     18  C           0     137.613 133.553 147.845  0.00  0.00     0.093 C 
ATOM     19  C           0     136.277 133.147 147.174  0.00  0.00     0.210 C 
ATOM     20  H           0     137.187 128.202 146.783  0.00  0.00     0.178 HD
ATOM     21  H           0     134.866 129.810 144.512  0.00  0.00     0.178 HD
ENDROOT
BRANCH   6  22
ATOM     22  C           0     135.327 129.916 148.587  0.00  0.00     0.208 C 
BRANCH  22  23
ATOM     23  O           0     133.894 130.085 148.744  0.00  0.00    -0.302 OA
BRANCH  23  24
ATOM     24  C           0     133.133 129.048 149.143  0.00  0.00     0.358 C 
ATOM     25  N           0     131.940 128.822 148.557  0.00  0.00    -0.346 N 
ATOM     26  H           0     131.631 129.406 147.849  0.00  0.00     0.161 HD
ATOM     27  H           0     131.392 128.075 148.845  0.00  0.00     0.161 HD
ATOM     28  O           0     133.522 128.316 150.032  0.00  0.00    -0.239 OA
ENDBRANCH  23  24
ENDBRANCH  22  23
ENDBRANCH   6  22
BRANCH  19  29
ATOM     29  O           0     135.825 134.182 146.297  0.00  0.00    -0.362 OA
ATOM     30  H           0     136.333 134.096 145.479  0.00  0.00     0.213 HD
ENDBRANCH  19  29
BRANCH  19  31
ATOM     31  O           0     135.287 132.864 148.164  0.00  0.00    -0.362 OA
ATOM     32  H           0     134.602 133.543 148.077  0.00  0.00     0.213 HD
ENDBRANCH  19  31
TORSDOF 5
ENDMDL
MODEL 9
REMARK VINA RESULT:      -6.2      2.898      5.056
REMARK  5 active torsions:
REMARK  status: ('A' for Active; 'I' for Inactive)
REMARK    1  A    between atoms: C_6  and  C_7 
REMARK    2  A    between atoms: C_7  and  O_8 
REMARK    3  A    between atoms: O_8  and  C_9 
REMARK       I    between atoms: C_9  and  N_10 
REMARK    4  A    between atoms: C_24  and  O_25 
REMARK    5  A    between atoms: C_24  and  O_26 
ROOT
ATOM      1  N           0     134.057 129.534 147.665  0.00  0.00    -0.235 N 
ATOM      2  H           0     133.510 128.911 147.162  0.00  0.00     0.174 HD
ATOM      3  H           0     133.903 129.656 148.615  0.00  0.00     0.174 HD
ATOM      4  C           0     135.004 130.200 147.067  0.00  0.00     0.672 C 
ATOM      5  N           0     135.266 130.056 145.716  0.00  0.00    -0.218 N 
ATOM      6  C           0     135.840 131.190 144.997  0.00  0.00     0.151 C 
ATOM      7  C           0     137.067 131.757 145.683  0.00  0.00     0.180 C 
ATOM      8  N           0     138.222 130.872 145.421  0.00  0.00    -0.215 N 
ATOM      9  C           0     138.957 130.796 146.579  0.00  0.00     0.672 C 
ATOM     10  N           0     140.203 130.417 146.632  0.00  0.00    -0.235 N 
ATOM     11  H           0     140.669 130.167 145.819  0.00  0.00     0.174 HD
ATOM     12  H           0     140.665 130.386 147.485  0.00  0.00     0.174 HD
ATOM     13  C           0     136.971 131.792 147.200  0.00  0.00     0.219 C 
ATOM     14  N           0     138.217 131.167 147.674  0.00  0.00    -0.187 N 
ATOM     15  C           0     138.604 130.979 149.075  0.00  0.00     0.171 C 
ATOM     16  N           0     135.800 131.095 147.734  0.00  0.00    -0.183 N 
ATOM     17  C           0     135.634 131.606 149.107  0.00  0.00     0.150 C 
ATOM     18  C           0     135.982 133.110 149.000  0.00  0.00     0.093 C 
ATOM     19  C           0     136.870 133.230 147.736  0.00  0.00     0.210 C 
ATOM     20  H           0     135.075 129.221 145.259  0.00  0.00     0.178 HD
ATOM     21  H           0     138.424 130.427 144.584  0.00  0.00     0.178 HD
ENDROOT
BRANCH   6  22
ATOM     22  C           0     134.783 132.292 144.889  0.00  0.00     0.208 C 
BRANCH  22  23
ATOM     23  O           0     135.181 133.245 143.869  0.00  0.00    -0.302 OA
BRANCH  23  24
ATOM     24  C           0     135.102 132.910 142.568  0.00  0.00     0.358 C 
ATOM     25  N           0     136.151 133.131 141.750  0.00  0.00    -0.346 N 
ATOM     26  H           0     136.961 133.532 142.100  0.00  0.00     0.161 HD
ATOM     27  H           0     136.095 132.890 140.812  0.00  0.00     0.161 HD
ATOM     28  O           0     134.086 132.407 142.129  0.00  0.00    -0.239 OA
ENDBRANCH  23  24
ENDBRANCH  22  23
ENDBRANCH   6  22
BRANCH  19  29
ATOM     29  O           0     138.163 133.730 148.082  0.00  0.00    -0.362 OA
ATOM     30  H           0     138.430 134.331 147.372  0.00  0.00     0.213 HD
ENDBRANCH  19  29
BRANCH  19  31
ATOM     31  O           0     136.249 134.078 146.770  0.00  0.00    -0.362 OA
ATOM     32  H           0     136.746 134.908 146.764  0.00  0.00     0.213 HD
ENDBRANCH  19  31
TORSDOF 5
ENDMDL
