# created with PyMOL 2.3.4
@<TRIPOS>MOLECULE
ligand_out_0001
32 35 1                 
SMALL
USER_CHARGES
@<TRIPOS>ATOM
1	   N	133.407	134.882	140.147	N.3	1	UNK0	-0.235	
2	   N	133.226	132.985	141.521	N.pl3	1	UNK0	-0.200	
3	   N	134.280	134.938	142.331	N.3	1	UNK0	-0.211	
4	   C	133.627	134.291	141.288	C.3	1	UNK0	0.670	
5	   C	134.157	132.096	142.237	C.2	1	UNK0	0.244	
6	   C	134.642	132.820	143.496	C.3	1	UNK0	0.101	
7	   C	135.257	134.164	143.087	C.3	1	UNK0	0.119	
8	   C	136.486	133.875	142.214	C.2	1	UNK0	0.243	
9	   C	135.699	131.984	144.217	C.2	1	UNK0	0.177	
10	   C	137.441	133.033	143.068	C.3	1	UNK0	0.311	
11	   C	136.127	132.728	145.490	C.3	1	UNK0	0.134	
12	   C	136.769	134.059	145.053	C.2	1	UNK0	0.198	
13	   C	135.726	134.909	144.336	C.2	1	UNK0	0.182	
14	   C	137.138	131.884	146.269	C.2	1	UNK0	0.207	
15	   O	136.845	131.789	143.395	O.2	1	UNK0	-0.322	
16	   O	137.870	133.775	144.196	O.2	1	UNK0	-0.319	
17	   O	134.983	132.991	146.305	O.2	1	UNK0	-0.382	
18	   O	137.056	130.525	145.836	O.2	1	UNK0	-0.398	
19	   O	136.304	136.160	143.960	O.2	1	UNK0	-0.390	
20	   O	133.484	130.889	142.604	O.2	1	UNK0	-0.376	
21	   O	138.604	132.765	142.283	O.2	1	UNK0	-0.341	
22	   O	136.097	133.145	141.048	O.2	1	UNK0	-0.385	
23	   H	132.953	134.406	139.434	 H	1	UNK0	0.174	
24	   H	133.696	135.798	140.012	 H	1	UNK0	0.174	
25	   H	132.359	132.667	141.223	 H	1	UNK0	0.180	
26	   H	134.087	135.863	142.548	 H	1	UNK0	0.178	
27	   H	134.240	132.521	145.904	 H	1	UNK0	0.210	
28	   H	136.821	129.998	146.611	 H	1	UNK0	0.209	
29	   H	135.799	136.849	144.413	 H	1	UNK0	0.210	
30	   H	132.607	130.923	142.195	 H	1	UNK0	0.212	
31	   H	138.821	133.583	141.817	 H	1	UNK0	0.215	
32	   H	136.142	133.761	140.304	 H	1	UNK0	0.210	
@<TRIPOS>BOND
1 1 4 1
2 1 23 1
3 1 24 1
4 2 5 1
5 2 25 1
6 3 26 1
7 2 4 1
8 3 4 1
9 5 6 1
10 5 20 2
11 6 7 1
12 6 9 1
13 3 7 1
14 7 8 1
15 7 13 1
16 8 10 1
17 8 22 2
18 9 11 1
19 9 15 2
20 10 16 2
21 10 21 2
22 11 12 1
23 11 14 1
24 11 17 2
25 12 13 1
26 13 19 2
27 14 18 2
28 10 15 2
29 12 16 2
30 17 27 1
31 18 28 1
32 19 29 1
33 20 30 1
34 21 31 1
35 22 32 1
@<TRIPOS>SUBSTRUCTURE
1	UNK0	1	GROUP	1 ****	UNK
