# created with PyMOL 2.3.4
@<TRIPOS>MOLECULE
ligand_out_0001
36 39 1                 
SMALL
USER_CHARGES
@<TRIPOS>ATOM
1	   N	134.804	131.895	146.554	N.3	1	UNK0	-0.235	
2	   N	136.370	133.573	146.037	N.3	1	UNK0	-0.218	
3	   N	136.240	135.750	143.861	N.3	1	UNK0	-0.216	
4	   N	134.492	136.932	142.790	N.3	1	UNK0	-0.235	
5	   N	134.502	134.575	142.990	N.3	1	UNK0	-0.191	
6	   N	135.047	132.652	144.353	N.3	1	UNK0	-0.183	
7	   N	139.227	130.679	146.625	N.pl3	1	UNK0	-0.333	
8	   N	136.810	129.581	147.233	N.3	1	UNK0	-0.157	
9	   N	136.813	130.233	148.288	N.3	1	UNK0	-0.157	
10	   C	135.380	132.674	145.682	C.3	1	UNK0	0.672	
11	   C	137.370	133.933	145.036	C.3	1	UNK0	0.151	
12	   C	136.751	134.370	143.722	C.3	1	UNK0	0.180	
13	   C	135.044	135.820	143.190	C.3	1	UNK0	0.670	
14	   C	135.525	133.567	143.314	C.3	1	UNK0	0.217	
15	   C	134.191	131.679	143.650	C.3	1	UNK0	0.150	
16	   C	134.916	131.429	142.306	C.3	1	UNK0	0.093	
17	   C	135.799	132.684	142.086	C.3	1	UNK0	0.209	
18	   C	138.267	132.722	144.777	C.2	1	UNK0	0.208	
19	   C	139.505	131.994	146.730	C.2	1	UNK0	0.360	
20	   C	139.310	129.817	147.807	C.3	1	UNK0	0.185	
21	   C	137.917	129.280	148.144	C.3	1	UNK0	0.198	
22	   C	137.872	127.979	148.948	C.3	1	UNK0	0.073	
23	   O	139.430	132.786	145.644	O.2	1	UNK0	-0.302	
24	   O	139.824	132.463	147.804	O.co2	1	UNK0	-0.239	
25	   O	135.414	133.358	140.886	O.2	1	UNK0	-0.362	
26	   O	137.179	132.318	142.033	O.2	1	UNK0	-0.362	
27	   H	135.066	131.936	147.487	 H	1	UNK0	0.174	
28	   H	134.110	131.280	146.271	 H	1	UNK0	0.174	
29	   H	134.929	137.780	142.964	 H	1	UNK0	0.174	
30	   H	133.644	136.909	142.319	 H	1	UNK0	0.174	
31	   H	136.399	133.954	146.928	 H	1	UNK0	0.178	
32	   H	136.672	136.476	144.339	 H	1	UNK0	0.178	
33	   H	133.601	134.390	142.684	 H	1	UNK0	0.180	
34	   H	138.972	130.303	145.767	 H	1	UNK0	0.164	
35	   H	135.363	134.301	141.100	 H	1	UNK0	0.213	
36	   H	137.540	132.462	142.919	 H	1	UNK0	0.213	
@<TRIPOS>BOND
1 1 10 1
2 1 27 1
3 1 28 1
4 2 11 1
5 2 31 1
6 3 13 1
7 3 32 1
8 4 29 1
9 4 30 1
10 5 33 1
11 6 15 1
12 7 20 1
13 7 34 1
14 8 9 1
15 2 10 1
16 6 10 1
17 11 12 1
18 11 18 1
19 3 12 1
20 12 14 1
21 4 13 1
22 5 13 1
23 5 14 1
24 6 14 1
25 14 17 1
26 15 16 1
27 16 17 1
28 17 25 2
29 17 26 2
30 18 23 2
31 7 19 1
32 19 24 2
33 20 21 1
34 8 21 1
35 9 21 1
36 21 22 1
37 19 23 2
38 25 35 1
39 26 36 1
@<TRIPOS>SUBSTRUCTURE
1	UNK0	1	GROUP	1 ****	UNK
