# created with PyMOL 2.3.4
@<TRIPOS>MOLECULE
ligand_out_0001
32 34 1                 
SMALL
USER_CHARGES
@<TRIPOS>ATOM
1	   N	135.383	136.872	143.231	N.3	1	UNK0	-0.235	
2	   N	133.873	135.070	143.299	N.3	1	UNK0	-0.218	
3	   N	133.976	132.512	145.012	N.3	1	UNK0	-0.216	
4	   N	134.858	131.966	147.139	N.3	1	UNK0	-0.235	
5	   N	136.123	133.084	145.483	N.3	1	UNK0	-0.191	
6	   N	136.143	134.706	143.689	N.3	1	UNK0	-0.183	
7	   N	133.557	136.141	139.846	N.pl3	1	UNK0	-0.346	
8	   C	135.146	135.602	143.402	C.3	1	UNK0	0.672	
9	   C	133.736	133.677	142.881	C.3	1	UNK0	0.151	
10	   C	134.604	132.736	143.694	C.3	1	UNK0	0.180	
11	   C	134.978	132.489	145.951	C.3	1	UNK0	0.670	
12	   C	135.977	133.294	144.033	C.3	1	UNK0	0.217	
13	   C	137.599	134.933	143.662	C.3	1	UNK0	0.150	
14	   C	138.176	133.641	143.033	C.3	1	UNK0	0.093	
15	   C	137.099	132.555	143.283	C.3	1	UNK0	0.209	
16	   C	134.131	133.564	141.408	C.2	1	UNK0	0.208	
17	   C	133.229	134.863	139.571	C.2	1	UNK0	0.358	
18	   O	133.021	133.990	140.575	O.2	1	UNK0	-0.302	
19	   O	133.121	134.499	138.417	O.co2	1	UNK0	-0.239	
20	   O	137.633	131.501	144.086	O.2	1	UNK0	-0.362	
21	   O	136.612	132.041	142.042	O.2	1	UNK0	-0.362	
22	   H	134.655	137.478	143.024	 H	1	UNK0	0.174	
23	   H	136.289	137.212	143.313	 H	1	UNK0	0.174	
24	   H	134.019	131.560	147.407	 H	1	UNK0	0.174	
25	   H	135.608	131.984	147.754	 H	1	UNK0	0.174	
26	   H	133.092	135.608	143.501	 H	1	UNK0	0.178	
27	   H	133.027	132.400	145.185	 H	1	UNK0	0.178	
28	   H	136.897	133.323	146.016	 H	1	UNK0	0.180	
29	   H	133.643	136.433	140.768	 H	1	UNK0	0.161	
30	   H	133.706	136.771	139.123	 H	1	UNK0	0.161	
31	   H	137.261	130.675	143.745	 H	1	UNK0	0.213	
32	   H	136.087	132.745	141.635	 H	1	UNK0	0.213	
@<TRIPOS>BOND
1 1 8 1
2 1 22 1
3 1 23 1
4 2 9 1
5 2 26 1
6 3 11 1
7 3 27 1
8 4 24 1
9 4 25 1
10 5 28 1
11 6 13 1
12 7 29 1
13 7 30 1
14 2 8 1
15 6 8 1
16 9 10 1
17 9 16 1
18 3 10 1
19 10 12 1
20 4 11 1
21 5 11 1
22 5 12 1
23 6 12 1
24 12 15 1
25 13 14 1
26 14 15 1
27 15 20 2
28 15 21 2
29 16 18 2
30 7 17 1
31 17 19 2
32 17 18 2
33 20 31 1
34 21 32 1
@<TRIPOS>SUBSTRUCTURE
1	UNK0	1	GROUP	1 ****	UNK
