MODEL 1
REMARK VINA RESULT:      -8.4      0.000      0.000
REMARK  5 active torsions:
REMARK  status: ('A' for Active; 'I' for Inactive)
REMARK    1  A    between atoms: C_6  and  C_7 
REMARK    2  A    between atoms: C_7  and  O_8 
REMARK    3  A    between atoms: O_8  and  C_9 
REMARK       I    between atoms: C_9  and  N_10 
REMARK    4  A    between atoms: C_23  and  O_24 
REMARK    5  A    between atoms: C_23  and  O_25 
ROOT
ATOM      1  N           0     135.383 136.872 143.231  0.00  0.00    -0.235 N 
ATOM      2  H           0     134.655 137.478 143.024  0.00  0.00     0.174 HD
ATOM      3  H           0     136.289 137.212 143.313  0.00  0.00     0.174 HD
ATOM      4  C           0     135.146 135.602 143.402  0.00  0.00     0.672 C 
ATOM      5  N           0     133.873 135.070 143.299  0.00  0.00    -0.218 N 
ATOM      6  C           0     133.736 133.677 142.881  0.00  0.00     0.151 C 
ATOM      7  C           0     134.604 132.736 143.694  0.00  0.00     0.180 C 
ATOM      8  N           0     133.976 132.512 145.012  0.00  0.00    -0.216 N 
ATOM      9  C           0     134.978 132.489 145.951  0.00  0.00     0.670 C 
ATOM     10  N           0     134.858 131.966 147.139  0.00  0.00    -0.235 N 
ATOM     11  H           0     134.019 131.560 147.407  0.00  0.00     0.174 HD
ATOM     12  H           0     135.608 131.984 147.754  0.00  0.00     0.174 HD
ATOM     13  C           0     135.977 133.294 144.033  0.00  0.00     0.217 C 
ATOM     14  N           0     136.123 133.084 145.483  0.00  0.00    -0.191 N 
ATOM     15  N           0     136.143 134.706 143.689  0.00  0.00    -0.183 N 
ATOM     16  C           0     137.599 134.933 143.662  0.00  0.00     0.150 C 
ATOM     17  C           0     138.176 133.641 143.033  0.00  0.00     0.093 C 
ATOM     18  C           0     137.099 132.555 143.283  0.00  0.00     0.209 C 
ATOM     19  H           0     133.092 135.608 143.501  0.00  0.00     0.178 HD
ATOM     20  H           0     133.027 132.400 145.185  0.00  0.00     0.178 HD
ATOM     21  H           0     136.897 133.323 146.016  0.00  0.00     0.180 HD
ENDROOT
BRANCH   6  22
ATOM     22  C           0     134.131 133.564 141.408  0.00  0.00     0.208 C 
BRANCH  22  23
ATOM     23  O           0     133.021 133.990 140.575  0.00  0.00    -0.302 OA
BRANCH  23  24
ATOM     24  C           0     133.229 134.863 139.571  0.00  0.00     0.358 C 
ATOM     25  N           0     133.557 136.141 139.846  0.00  0.00    -0.346 N 
ATOM     26  H           0     133.643 136.433 140.768  0.00  0.00     0.161 HD
ATOM     27  H           0     133.706 136.771 139.123  0.00  0.00     0.161 HD
ATOM     28  O           0     133.121 134.499 138.417  0.00  0.00    -0.239 OA
ENDBRANCH  23  24
ENDBRANCH  22  23
ENDBRANCH   6  22
BRANCH  18  29
ATOM     29  O           0     137.633 131.501 144.086  0.00  0.00    -0.362 OA
ATOM     30  H           0     137.261 130.675 143.745  0.00  0.00     0.213 HD
ENDBRANCH  18  29
BRANCH  18  31
ATOM     31  O           0     136.612 132.041 142.042  0.00  0.00    -0.362 OA
ATOM     32  H           0     136.087 132.745 141.635  0.00  0.00     0.213 HD
ENDBRANCH  18  31
TORSDOF 5
ENDMDL
MODEL 2
REMARK VINA RESULT:      -8.0      1.570      1.945
REMARK  5 active torsions:
REMARK  status: ('A' for Active; 'I' for Inactive)
REMARK    1  A    between atoms: C_6  and  C_7 
REMARK    2  A    between atoms: C_7  and  O_8 
REMARK    3  A    between atoms: O_8  and  C_9 
REMARK       I    between atoms: C_9  and  N_10 
REMARK    4  A    between atoms: C_23  and  O_24 
REMARK    5  A    between atoms: C_23  and  O_25 
ROOT
ATOM      1  N           0     137.638 134.973 142.949  0.00  0.00    -0.235 N 
ATOM      2  H           0     137.748 135.826 142.500  0.00  0.00     0.174 HD
ATOM      3  H           0     138.414 134.427 143.150  0.00  0.00     0.174 HD
ATOM      4  C           0     136.447 134.562 143.286  0.00  0.00     0.672 C 
ATOM      5  N           0     135.310 135.307 143.026  0.00  0.00    -0.218 N 
ATOM      6  C           0     134.048 134.598 142.836  0.00  0.00     0.151 C 
ATOM      7  C           0     133.754 133.618 143.955  0.00  0.00     0.180 C 
ATOM      8  N           0     133.279 134.361 145.141  0.00  0.00    -0.216 N 
ATOM      9  C           0     133.837 133.773 146.249  0.00  0.00     0.670 C 
ATOM     10  N           0     133.380 133.913 147.462  0.00  0.00    -0.235 N 
ATOM     11  H           0     132.596 134.463 147.623  0.00  0.00     0.174 HD
ATOM     12  H           0     133.822 133.469 148.202  0.00  0.00     0.174 HD
ATOM     13  C           0     134.976 132.866 144.459  0.00  0.00     0.217 C 
ATOM     14  N           0     134.936 133.017 145.923  0.00  0.00    -0.191 N 
ATOM     15  N           0     136.240 133.363 143.916  0.00  0.00    -0.183 N 
ATOM     16  C           0     137.214 132.279 144.141  0.00  0.00     0.150 C 
ATOM     17  C           0     136.412 130.982 143.872  0.00  0.00     0.093 C 
ATOM     18  C           0     134.928 131.375 144.086  0.00  0.00     0.209 C 
ATOM     19  H           0     135.351 136.274 142.972  0.00  0.00     0.178 HD
ATOM     20  H           0     132.682 135.126 145.137  0.00  0.00     0.178 HD
ATOM     21  H           0     135.574 132.644 146.550  0.00  0.00     0.180 HD
ENDROOT
BRANCH   6  22
ATOM     22  C           0     134.106 133.833 141.512  0.00  0.00     0.208 C 
BRANCH  22  23
ATOM     23  O           0     132.966 134.198 140.691  0.00  0.00    -0.302 OA
BRANCH  23  24
ATOM     24  C           0     133.148 134.919 139.569  0.00  0.00     0.358 C 
ATOM     25  N           0     133.543 136.205 139.651  0.00  0.00    -0.346 N 
ATOM     26  H           0     133.696 136.612 140.518  0.00  0.00     0.161 HD
ATOM     27  H           0     133.673 136.725 138.842  0.00  0.00     0.161 HD
ATOM     28  O           0     132.956 134.410 138.482  0.00  0.00    -0.239 OA
ENDBRANCH  23  24
ENDBRANCH  22  23
ENDBRANCH   6  22
BRANCH  18  29
ATOM     29  O           0     134.359 130.608 145.149  0.00  0.00    -0.362 OA
ATOM     30  H           0     134.243 131.210 145.897  0.00  0.00     0.213 HD
ENDBRANCH  18  29
BRANCH  18  31
ATOM     31  O           0     134.184 131.188 142.880  0.00  0.00    -0.362 OA
ATOM     32  H           0     133.758 132.033 142.682  0.00  0.00     0.213 HD
ENDBRANCH  18  31
TORSDOF 5
ENDMDL
MODEL 3
REMARK VINA RESULT:      -7.5      2.945      5.234
REMARK  5 active torsions:
REMARK  status: ('A' for Active; 'I' for Inactive)
REMARK    1  A    between atoms: C_6  and  C_7 
REMARK    2  A    between atoms: C_7  and  O_8 
REMARK    3  A    between atoms: O_8  and  C_9 
REMARK       I    between atoms: C_9  and  N_10 
REMARK    4  A    between atoms: C_23  and  O_24 
REMARK    5  A    between atoms: C_23  and  O_25 
ROOT
ATOM      1  N           0     135.280 130.827 143.279  0.00  0.00    -0.235 N 
ATOM      2  H           0     134.625 130.147 143.500  0.00  0.00     0.174 HD
ATOM      3  H           0     135.982 130.634 142.637  0.00  0.00     0.174 HD
ATOM      4  C           0     135.217 132.002 143.841  0.00  0.00     0.672 C 
ATOM      5  N           0     134.233 132.327 144.759  0.00  0.00    -0.218 N 
ATOM      6  C           0     134.540 133.330 145.775  0.00  0.00     0.151 C 
ATOM      7  C           0     135.109 134.605 145.184  0.00  0.00     0.180 C 
ATOM      8  N           0     134.013 135.395 144.584  0.00  0.00    -0.216 N 
ATOM      9  C           0     134.485 135.939 143.415  0.00  0.00     0.670 C 
ATOM     10  N           0     133.945 136.961 142.812  0.00  0.00    -0.235 N 
ATOM     11  H           0     133.159 137.386 143.188  0.00  0.00     0.174 HD
ATOM     12  H           0     134.331 137.296 141.987  0.00  0.00     0.174 HD
ATOM     13  C           0     136.071 134.379 144.028  0.00  0.00     0.217 C 
ATOM     14  N           0     135.596 135.274 142.959  0.00  0.00    -0.191 N 
ATOM     15  N           0     136.123 132.992 143.566  0.00  0.00    -0.183 N 
ATOM     16  C           0     137.378 132.883 142.800  0.00  0.00     0.150 C 
ATOM     17  C           0     138.388 133.747 143.594  0.00  0.00     0.093 C 
ATOM     18  C           0     137.518 134.739 144.406  0.00  0.00     0.209 C 
ATOM     19  H           0     133.363 131.901 144.728  0.00  0.00     0.178 HD
ATOM     20  H           0     133.121 135.509 144.950  0.00  0.00     0.178 HD
ATOM     21  H           0     136.001 135.377 142.084  0.00  0.00     0.180 HD
ENDROOT
BRANCH   6  22
ATOM     22  C           0     135.557 132.745 146.756  0.00  0.00     0.208 C 
BRANCH  22  23
ATOM     23  O           0     135.677 131.315 146.534  0.00  0.00    -0.302 OA
BRANCH  23  24
ATOM     24  C           0     136.891 130.734 146.528  0.00  0.00     0.358 C 
ATOM     25  N           0     137.021 129.440 146.885  0.00  0.00    -0.346 N 
ATOM     26  H           0     136.239 128.928 147.146  0.00  0.00     0.161 HD
ATOM     27  H           0     137.896 129.022 146.881  0.00  0.00     0.161 HD
ATOM     28  O           0     137.870 131.375 146.201  0.00  0.00    -0.239 OA
ENDBRANCH  23  24
ENDBRANCH  22  23
ENDBRANCH   6  22
BRANCH  18  29
ATOM     29  O           0     137.817 136.085 144.031  0.00  0.00    -0.362 OA
ATOM     30  H           0     137.177 136.650 144.486  0.00  0.00     0.213 HD
ENDBRANCH  18  29
BRANCH  18  31
ATOM     31  O           0     137.726 134.553 145.808  0.00  0.00    -0.362 OA
ATOM     32  H           0     137.864 133.606 145.946  0.00  0.00     0.213 HD
ENDBRANCH  18  31
TORSDOF 5
ENDMDL
MODEL 4
REMARK VINA RESULT:      -7.3      1.940      5.585
REMARK  5 active torsions:
REMARK  status: ('A' for Active; 'I' for Inactive)
REMARK    1  A    between atoms: C_6  and  C_7 
REMARK    2  A    between atoms: C_7  and  O_8 
REMARK    3  A    between atoms: O_8  and  C_9 
REMARK       I    between atoms: C_9  and  N_10 
REMARK    4  A    between atoms: C_23  and  O_24 
REMARK    5  A    between atoms: C_23  and  O_25 
ROOT
ATOM      1  N           0     134.768 132.276 146.738  0.00  0.00    -0.235 N 
ATOM      2  H           0     134.950 132.441 147.676  0.00  0.00     0.174 HD
ATOM      3  H           0     134.172 131.556 146.478  0.00  0.00     0.174 HD
ATOM      4  C           0     135.322 133.024 145.825  0.00  0.00     0.672 C 
ATOM      5  N           0     136.176 134.066 146.144  0.00  0.00    -0.218 N 
ATOM      6  C           0     137.206 134.437 145.178  0.00  0.00     0.151 C 
ATOM      7  C           0     136.648 134.661 143.786  0.00  0.00     0.180 C 
ATOM      8  N           0     135.979 135.978 143.737  0.00  0.00    -0.216 N 
ATOM      9  C           0     134.840 135.836 142.983  0.00  0.00     0.670 C 
ATOM     10  N           0     134.201 136.827 142.427  0.00  0.00    -0.235 N 
ATOM     11  H           0     134.527 137.735 142.534  0.00  0.00     0.174 HD
ATOM     12  H           0     133.401 136.657 141.905  0.00  0.00     0.174 HD
ATOM     13  C           0     135.555 133.681 143.390  0.00  0.00     0.217 C 
ATOM     14  N           0     134.456 134.522 142.886  0.00  0.00    -0.191 N 
ATOM     15  N           0     135.101 132.827 144.487  0.00  0.00    -0.183 N 
ATOM     16  C           0     134.415 131.693 143.841  0.00  0.00     0.150 C 
ATOM     17  C           0     135.269 131.394 142.584  0.00  0.00     0.093 C 
ATOM     18  C           0     136.022 132.716 142.286  0.00  0.00     0.209 C 
ATOM     19  H           0     136.091 134.537 146.987  0.00  0.00     0.178 HD
ATOM     20  H           0     136.287 136.795 144.160  0.00  0.00     0.178 HD
ATOM     21  H           0     133.608 134.202 142.543  0.00  0.00     0.180 HD
ENDROOT
BRANCH   6  22
ATOM     22  C           0     138.250 133.321 145.117  0.00  0.00     0.208 C 
BRANCH  22  23
ATOM     23  O           0     138.600 132.910 146.465  0.00  0.00    -0.302 OA
BRANCH  23  24
ATOM     24  C           0     138.643 131.602 146.781  0.00  0.00     0.358 C 
ATOM     25  N           0     138.311 130.675 145.861  0.00  0.00    -0.346 N 
ATOM     26  H           0     138.041 130.950 144.970  0.00  0.00     0.161 HD
ATOM     27  H           0     138.341 129.733 146.089  0.00  0.00     0.161 HD
ATOM     28  O           0     138.981 131.258 147.896  0.00  0.00    -0.239 OA
ENDBRANCH  23  24
ENDBRANCH  22  23
ENDBRANCH   6  22
BRANCH  18  29
ATOM     29  O           0     135.662 133.214 140.996  0.00  0.00    -0.362 OA
ATOM     30  H           0     135.030 133.932 141.141  0.00  0.00     0.213 HD
ENDBRANCH  18  29
BRANCH  18  31
ATOM     31  O           0     137.434 132.513 142.368  0.00  0.00    -0.362 OA
ATOM     32  H           0     137.613 131.637 141.999  0.00  0.00     0.213 HD
ENDBRANCH  18  31
TORSDOF 5
ENDMDL
MODEL 5
REMARK VINA RESULT:      -7.3      3.190      5.050
REMARK  5 active torsions:
REMARK  status: ('A' for Active; 'I' for Inactive)
REMARK    1  A    between atoms: C_6  and  C_7 
REMARK    2  A    between atoms: C_7  and  O_8 
REMARK    3  A    between atoms: O_8  and  C_9 
REMARK       I    between atoms: C_9  and  N_10 
REMARK    4  A    between atoms: C_23  and  O_24 
REMARK    5  A    between atoms: C_23  and  O_25 
ROOT
ATOM      1  N           0     135.617 133.219 141.040  0.00  0.00    -0.235 N 
ATOM      2  H           0     136.285 133.128 140.344  0.00  0.00     0.174 HD
ATOM      3  H           0     134.722 133.520 140.817  0.00  0.00     0.174 HD
ATOM      4  C           0     135.918 132.934 142.276  0.00  0.00     0.672 C 
ATOM      5  N           0     137.179 132.497 142.644  0.00  0.00    -0.218 N 
ATOM      6  C           0     137.644 132.788 143.998  0.00  0.00     0.151 C 
ATOM      7  C           0     136.644 132.373 145.060  0.00  0.00     0.180 C 
ATOM      8  N           0     136.706 130.908 145.240  0.00  0.00    -0.216 N 
ATOM      9  C           0     135.420 130.456 145.411  0.00  0.00     0.670 C 
ATOM     10  N           0     135.111 129.308 145.946  0.00  0.00    -0.235 N 
ATOM     11  H           0     135.813 128.713 146.253  0.00  0.00     0.174 HD
ATOM     12  H           0     134.181 129.051 146.038  0.00  0.00     0.174 HD
ATOM     13  C           0     135.194 132.634 144.685  0.00  0.00     0.217 C 
ATOM     14  N           0     134.499 131.363 144.949  0.00  0.00    -0.191 N 
ATOM     15  N           0     135.010 133.052 143.295  0.00  0.00    -0.183 N 
ATOM     16  C           0     133.674 133.674 143.248  0.00  0.00     0.150 C 
ATOM     17  C           0     133.565 134.449 144.584  0.00  0.00     0.093 C 
ATOM     18  C           0     134.573 133.756 145.535  0.00  0.00     0.209 C 
ATOM     19  H           0     137.738 132.010 142.020  0.00  0.00     0.178 HD
ATOM     20  H           0     137.509 130.363 145.239  0.00  0.00     0.178 HD
ATOM     21  H           0     133.553 131.196 144.822  0.00  0.00     0.180 HD
ENDROOT
BRANCH   6  22
ATOM     22  C           0     137.898 134.291 144.120  0.00  0.00     0.208 C 
BRANCH  22  23
ATOM     23  O           0     139.065 134.519 144.951  0.00  0.00    -0.302 OA
BRANCH  23  24
ATOM     24  C           0     138.950 135.216 146.098  0.00  0.00     0.358 C 
ATOM     25  N           0     139.425 136.475 146.172  0.00  0.00    -0.346 N 
ATOM     26  H           0     139.850 136.880 145.400  0.00  0.00     0.161 HD
ATOM     27  H           0     139.342 136.977 146.998  0.00  0.00     0.161 HD
ATOM     28  O           0     138.417 134.709 147.066  0.00  0.00    -0.239 OA
ENDBRANCH  23  24
ENDBRANCH  22  23
ENDBRANCH   6  22
BRANCH  18  29
ATOM     29  O           0     133.894 133.212 146.668  0.00  0.00    -0.362 OA
ATOM     30  H           0     132.950 133.374 146.533  0.00  0.00     0.213 HD
ENDBRANCH  18  29
BRANCH  18  31
ATOM     31  O           0     135.581 134.679 145.952  0.00  0.00    -0.362 OA
ATOM     32  H           0     135.902 134.373 146.812  0.00  0.00     0.213 HD
ENDBRANCH  18  31
TORSDOF 5
ENDMDL
MODEL 6
REMARK VINA RESULT:      -7.2      2.215      2.986
REMARK  5 active torsions:
REMARK  status: ('A' for Active; 'I' for Inactive)
REMARK    1  A    between atoms: C_6  and  C_7 
REMARK    2  A    between atoms: C_7  and  O_8 
REMARK    3  A    between atoms: O_8  and  C_9 
REMARK       I    between atoms: C_9  and  N_10 
REMARK    4  A    between atoms: C_23  and  O_24 
REMARK    5  A    between atoms: C_23  and  O_25 
ROOT
ATOM      1  N           0     137.732 135.122 144.296  0.00  0.00    -0.235 N 
ATOM      2  H           0     138.020 135.829 144.893  0.00  0.00     0.174 HD
ATOM      3  H           0     138.203 134.970 143.461  0.00  0.00     0.174 HD
ATOM      4  C           0     136.714 134.371 144.615  0.00  0.00     0.672 C 
ATOM      5  N           0     136.013 134.544 145.796  0.00  0.00    -0.218 N 
ATOM      6  C           0     134.605 134.162 145.826  0.00  0.00     0.151 C 
ATOM      7  C           0     134.370 132.755 145.311  0.00  0.00     0.180 C 
ATOM      8  N           0     134.765 131.784 146.353  0.00  0.00    -0.216 N 
ATOM      9  C           0     135.390 130.734 145.726  0.00  0.00     0.670 C 
ATOM     10  N           0     135.546 129.553 146.254  0.00  0.00    -0.235 N 
ATOM     11  H           0     135.211 129.373 147.146  0.00  0.00     0.174 HD
ATOM     12  H           0     135.997 128.854 145.755  0.00  0.00     0.174 HD
ATOM     13  C           0     135.231 132.380 144.116  0.00  0.00     0.217 C 
ATOM     14  N           0     135.828 131.082 144.472  0.00  0.00    -0.191 N 
ATOM     15  N           0     136.267 133.364 143.801  0.00  0.00    -0.183 N 
ATOM     16  C           0     136.673 133.073 142.414  0.00  0.00     0.150 C 
ATOM     17  C           0     135.352 132.698 141.699  0.00  0.00     0.093 C 
ATOM     18  C           0     134.398 132.236 142.830  0.00  0.00     0.209 C 
ATOM     19  H           0     136.447 134.910 146.582  0.00  0.00     0.178 HD
ATOM     20  H           0     134.611 131.871 147.307  0.00  0.00     0.178 HD
ATOM     21  H           0     136.427 130.560 143.915  0.00  0.00     0.180 HD
ENDROOT
BRANCH   6  22
ATOM     22  C           0     133.808 135.142 144.963  0.00  0.00     0.208 C 
BRANCH  22  23
ATOM     23  O           0     134.699 135.789 144.017  0.00  0.00    -0.302 OA
BRANCH  23  24
ATOM     24  C           0     134.197 136.381 142.916  0.00  0.00     0.358 C 
ATOM     25  N           0     134.147 137.726 142.839  0.00  0.00    -0.346 N 
ATOM     26  H           0     134.472 138.267 143.576  0.00  0.00     0.161 HD
ATOM     27  H           0     133.785 138.153 142.047  0.00  0.00     0.161 HD
ATOM     28  O           0     133.790 135.704 141.994  0.00  0.00    -0.239 OA
ENDBRANCH  23  24
ENDBRANCH  22  23
ENDBRANCH   6  22
BRANCH  18  29
ATOM     29  O           0     134.011 130.876 142.630  0.00  0.00    -0.362 OA
ATOM     30  H           0     133.044 130.856 142.639  0.00  0.00     0.213 HD
ENDBRANCH  18  29
BRANCH  18  31
ATOM     31  O           0     133.247 133.081 142.887  0.00  0.00    -0.362 OA
ATOM     32  H           0     132.753 132.826 143.679  0.00  0.00     0.213 HD
ENDBRANCH  18  31
TORSDOF 5
ENDMDL
MODEL 7
REMARK VINA RESULT:      -7.2      2.961      5.367
REMARK  5 active torsions:
REMARK  status: ('A' for Active; 'I' for Inactive)
REMARK    1  A    between atoms: C_6  and  C_7 
REMARK    2  A    between atoms: C_7  and  O_8 
REMARK    3  A    between atoms: O_8  and  C_9 
REMARK       I    between atoms: C_9  and  N_10 
REMARK    4  A    between atoms: C_23  and  O_24 
REMARK    5  A    between atoms: C_23  and  O_25 
ROOT
ATOM      1  N           0     135.222 130.755 143.754  0.00  0.00    -0.235 N 
ATOM      2  H           0     134.541 130.126 144.037  0.00  0.00     0.174 HD
ATOM      3  H           0     135.940 130.462 143.170  0.00  0.00     0.174 HD
ATOM      4  C           0     135.173 131.995 144.153  0.00  0.00     0.672 C 
ATOM      5  N           0     134.168 132.462 144.982  0.00  0.00    -0.218 N 
ATOM      6  C           0     134.467 133.583 145.868  0.00  0.00     0.151 C 
ATOM      7  C           0     135.091 134.755 145.136  0.00  0.00     0.180 C 
ATOM      8  N           0     134.039 135.483 144.396  0.00  0.00    -0.216 N 
ATOM      9  C           0     134.566 135.857 143.184  0.00  0.00     0.670 C 
ATOM     10  N           0     134.076 136.801 142.432  0.00  0.00    -0.235 N 
ATOM     11  H           0     133.290 137.291 142.719  0.00  0.00     0.174 HD
ATOM     12  H           0     134.499 137.015 141.585  0.00  0.00     0.174 HD
ATOM     13  C           0     136.086 134.356 144.057  0.00  0.00     0.217 C 
ATOM     14  N           0     135.673 135.111 142.863  0.00  0.00    -0.191 N 
ATOM     15  N           0     136.115 132.919 143.784  0.00  0.00    -0.183 N 
ATOM     16  C           0     137.392 132.680 143.087  0.00  0.00     0.150 C 
ATOM     17  C           0     138.398 133.618 143.798  0.00  0.00     0.093 C 
ATOM     18  C           0     137.529 134.729 144.439  0.00  0.00     0.209 C 
ATOM     19  H           0     133.288 132.055 144.974  0.00  0.00     0.178 HD
ATOM     20  H           0     133.139 135.666 144.710  0.00  0.00     0.178 HD
ATOM     21  H           0     136.110 135.088 141.998  0.00  0.00     0.180 HD
ENDROOT
BRANCH   6  22
ATOM     22  C           0     135.433 133.110 146.955  0.00  0.00     0.208 C 
BRANCH  22  23
ATOM     23  O           0     135.035 133.668 148.234  0.00  0.00    -0.302 OA
BRANCH  23  24
ATOM     24  C           0     135.457 134.896 148.593  0.00  0.00     0.358 C 
ATOM     25  N           0     134.560 135.848 148.918  0.00  0.00    -0.346 N 
ATOM     26  H           0     133.610 135.650 148.892  0.00  0.00     0.161 HD
ATOM     27  H           0     134.863 136.733 149.176  0.00  0.00     0.161 HD
ATOM     28  O           0     136.646 135.145 148.625  0.00  0.00    -0.239 OA
ENDBRANCH  23  24
ENDBRANCH  22  23
ENDBRANCH   6  22
BRANCH  18  29
ATOM     29  O           0     137.877 136.006 143.901  0.00  0.00    -0.362 OA
ATOM     30  H           0     137.250 136.189 143.188  0.00  0.00     0.213 HD
ENDBRANCH  18  29
BRANCH  18  31
ATOM     31  O           0     137.683 134.726 145.860  0.00  0.00    -0.362 OA
ATOM     32  H           0     138.385 135.360 146.066  0.00  0.00     0.213 HD
ENDBRANCH  18  31
TORSDOF 5
ENDMDL
MODEL 8
REMARK VINA RESULT:      -7.2      2.376      5.477
REMARK  5 active torsions:
REMARK  status: ('A' for Active; 'I' for Inactive)
REMARK    1  A    between atoms: C_6  and  C_7 
REMARK    2  A    between atoms: C_7  and  O_8 
REMARK    3  A    between atoms: O_8  and  C_9 
REMARK       I    between atoms: C_9  and  N_10 
REMARK    4  A    between atoms: C_23  and  O_24 
REMARK    5  A    between atoms: C_23  and  O_25 
ROOT
ATOM      1  N           0     134.919 129.979 144.997  0.00  0.00    -0.235 N 
ATOM      2  H           0     135.274 129.396 145.686  0.00  0.00     0.174 HD
ATOM      3  H           0     134.363 129.613 144.291  0.00  0.00     0.174 HD
ATOM      4  C           0     135.185 131.255 145.022  0.00  0.00     0.672 C 
ATOM      5  N           0     135.969 131.825 146.010  0.00  0.00    -0.218 N 
ATOM      6  C           0     136.728 133.029 145.683  0.00  0.00     0.151 C 
ATOM      7  C           0     135.870 134.105 145.046  0.00  0.00     0.180 C 
ATOM      8  N           0     135.067 134.769 146.094  0.00  0.00    -0.216 N 
ATOM      9  C           0     133.817 135.002 145.573  0.00  0.00     0.670 C 
ATOM     10  N           0     132.973 135.871 146.055  0.00  0.00    -0.235 N 
ATOM     11  H           0     133.214 136.402 146.830  0.00  0.00     0.174 HD
ATOM     12  H           0     132.105 135.986 145.638  0.00  0.00     0.174 HD
ATOM     13  C           0     134.832 133.576 144.070  0.00  0.00     0.217 C 
ATOM     14  N           0     133.567 134.208 144.483  0.00  0.00    -0.191 N 
ATOM     15  N           0     134.712 132.118 144.068  0.00  0.00    -0.183 N 
ATOM     16  C           0     134.033 131.783 142.803  0.00  0.00     0.150 C 
ATOM     17  C           0     134.632 132.773 141.774  0.00  0.00     0.093 C 
ATOM     18  C           0     135.159 133.961 142.617  0.00  0.00     0.209 C 
ATOM     19  H           0     136.012 131.436 146.897  0.00  0.00     0.178 HD
ATOM     20  H           0     135.367 135.000 146.988  0.00  0.00     0.178 HD
ATOM     21  H           0     132.706 134.085 144.055  0.00  0.00     0.180 HD
ENDROOT
BRANCH   6  22
ATOM     22  C           0     137.851 132.656 144.713  0.00  0.00     0.208 C 
BRANCH  22  23
ATOM     23  O           0     138.945 132.048 145.449  0.00  0.00    -0.302 OA
BRANCH  23  24
ATOM     24  C           0     140.074 132.746 145.674  0.00  0.00     0.358 C 
ATOM     25  N           0     140.199 133.483 146.796  0.00  0.00    -0.346 N 
ATOM     26  H           0     139.474 133.511 147.441  0.00  0.00     0.161 HD
ATOM     27  H           0     141.012 133.986 146.958  0.00  0.00     0.161 HD
ATOM     28  O           0     140.981 132.711 144.866  0.00  0.00    -0.239 OA
ENDBRANCH  23  24
ENDBRANCH  22  23
ENDBRANCH   6  22
BRANCH  18  29
ATOM     29  O           0     134.485 135.167 142.253  0.00  0.00    -0.362 OA
ATOM     30  H           0     133.539 135.006 142.374  0.00  0.00     0.213 HD
ENDBRANCH  18  29
BRANCH  18  31
ATOM     31  O           0     136.570 134.106 142.448  0.00  0.00    -0.362 OA
ATOM     32  H           0     136.920 133.225 142.256  0.00  0.00     0.213 HD
ENDBRANCH  18  31
TORSDOF 5
ENDMDL
MODEL 9
REMARK VINA RESULT:      -7.2      2.892      4.226
REMARK  5 active torsions:
REMARK  status: ('A' for Active; 'I' for Inactive)
REMARK    1  A    between atoms: C_6  and  C_7 
REMARK    2  A    between atoms: C_7  and  O_8 
REMARK    3  A    between atoms: O_8  and  C_9 
REMARK       I    between atoms: C_9  and  N_10 
REMARK    4  A    between atoms: C_23  and  O_24 
REMARK    5  A    between atoms: C_23  and  O_25 
ROOT
ATOM      1  N           0     137.678 135.129 144.338  0.00  0.00    -0.235 N 
ATOM      2  H           0     137.974 135.816 144.954  0.00  0.00     0.174 HD
ATOM      3  H           0     138.136 135.007 143.491  0.00  0.00     0.174 HD
ATOM      4  C           0     136.668 134.365 144.648  0.00  0.00     0.672 C 
ATOM      5  N           0     135.985 134.496 145.845  0.00  0.00    -0.218 N 
ATOM      6  C           0     134.579 134.108 145.885  0.00  0.00     0.151 C 
ATOM      7  C           0     134.340 132.719 145.327  0.00  0.00     0.180 C 
ATOM      8  N           0     134.754 131.714 146.329  0.00  0.00    -0.216 N 
ATOM      9  C           0     135.371 130.688 145.656  0.00  0.00     0.670 C 
ATOM     10  N           0     135.540 129.490 146.142  0.00  0.00    -0.235 N 
ATOM     11  H           0     135.219 129.279 147.033  0.00  0.00     0.174 HD
ATOM     12  H           0     135.984 128.810 145.612  0.00  0.00     0.174 HD
ATOM     13  C           0     135.182 132.386 144.106  0.00  0.00     0.217 C 
ATOM     14  N           0     135.788 131.079 144.408  0.00  0.00    -0.191 N 
ATOM     15  N           0     136.210 133.384 143.808  0.00  0.00    -0.183 N 
ATOM     16  C           0     136.594 133.142 142.405  0.00  0.00     0.150 C 
ATOM     17  C           0     135.263 132.787 141.699  0.00  0.00     0.093 C 
ATOM     18  C           0     134.329 132.284 142.829  0.00  0.00     0.209 C 
ATOM     19  H           0     136.431 134.836 146.637  0.00  0.00     0.178 HD
ATOM     20  H           0     134.615 131.769 147.287  0.00  0.00     0.178 HD
ATOM     21  H           0     136.380 130.579 143.825  0.00  0.00     0.180 HD
ENDROOT
BRANCH   6  22
ATOM     22  C           0     133.766 135.114 145.069  0.00  0.00     0.208 C 
BRANCH  22  23
ATOM     23  O           0     133.266 136.158 145.945  0.00  0.00    -0.302 OA
BRANCH  23  24
ATOM     24  C           0     132.754 135.839 147.149  0.00  0.00     0.358 C 
ATOM     25  N           0     133.298 136.353 148.270  0.00  0.00    -0.346 N 
ATOM     26  H           0     134.059 136.953 148.209  0.00  0.00     0.161 HD
ATOM     27  H           0     132.930 136.123 149.137  0.00  0.00     0.161 HD
ATOM     28  O           0     131.802 135.089 147.224  0.00  0.00    -0.239 OA
ENDBRANCH  23  24
ENDBRANCH  22  23
ENDBRANCH   6  22
BRANCH  18  29
ATOM     29  O           0     133.943 130.929 142.590  0.00  0.00    -0.362 OA
ATOM     30  H           0     132.976 130.906 142.614  0.00  0.00     0.213 HD
ENDBRANCH  18  29
BRANCH  18  31
ATOM     31  O           0     133.176 133.122 142.934  0.00  0.00    -0.362 OA
ATOM     32  H           0     132.696 132.839 143.724  0.00  0.00     0.213 HD
ENDBRANCH  18  31
TORSDOF 5
ENDMDL
