# created with PyMOL 2.3.4
@<TRIPOS>MOLECULE
ligand_out_0001
32 34 1                 
SMALL
USER_CHARGES
@<TRIPOS>ATOM
1	   N	135.601	132.624	147.049	N.3	1	UNK0	-0.235	
2	   N	136.890	134.357	146.115	N.3	1	UNK0	-0.218	
3	   N	136.299	136.105	143.648	N.3	1	UNK0	-0.216	
4	   N	134.331	136.880	142.590	N.3	1	UNK0	-0.235	
5	   N	134.662	134.608	143.156	N.3	1	UNK0	-0.191	
6	   N	135.562	133.019	144.743	N.3	1	UNK0	-0.183	
7	   N	140.704	131.448	146.522	N.pl3	1	UNK0	-0.341	
8	   C	135.998	133.304	146.011	C.3	1	UNK0	0.672	
9	   C	137.748	134.653	144.972	C.3	1	UNK0	0.151	
10	   C	136.971	134.789	143.677	C.3	1	UNK0	0.180	
11	   C	135.053	135.922	143.100	C.3	1	UNK0	0.670	
12	   C	135.830	133.793	143.530	C.3	1	UNK0	0.217	
13	   C	134.783	131.850	144.294	C.3	1	UNK0	0.150	
14	   C	135.421	131.460	142.940	C.3	1	UNK0	0.093	
15	   C	136.113	132.752	142.435	C.3	1	UNK0	0.209	
16	   C	138.770	133.526	144.817	C.2	1	UNK0	0.208	
17	   C	139.638	132.255	146.691	C.2	1	UNK0	0.360	
18	   C	140.781	130.176	147.243	C.3	1	UNK0	0.151	
19	   O	139.566	133.425	146.028	O.2	1	UNK0	-0.302	
20	   O	138.741	131.927	147.442	O.co2	1	UNK0	-0.239	
21	   O	135.547	133.165	141.189	O.2	1	UNK0	-0.362	
22	   O	137.520	132.543	142.299	O.2	1	UNK0	-0.362	
23	   H	135.933	132.851	147.933	 H	1	UNK0	0.174	
24	   H	134.972	131.894	146.940	 H	1	UNK0	0.174	
25	   H	134.666	137.789	142.581	 H	1	UNK0	0.174	
26	   H	133.456	136.683	142.218	 H	1	UNK0	0.174	
27	   H	136.942	134.886	146.928	 H	1	UNK0	0.178	
28	   H	136.671	136.945	143.959	 H	1	UNK0	0.178	
29	   H	133.770	134.273	142.978	 H	1	UNK0	0.180	
30	   H	141.419	131.710	145.922	 H	1	UNK0	0.164	
31	   H	136.132	132.836	140.493	 H	1	UNK0	0.213	
32	   H	137.806	132.046	143.078	 H	1	UNK0	0.213	
@<TRIPOS>BOND
1 1 8 1
2 1 23 1
3 1 24 1
4 2 9 1
5 2 27 1
6 3 11 1
7 3 28 1
8 4 25 1
9 4 26 1
10 5 29 1
11 6 13 1
12 7 18 1
13 7 30 1
14 2 8 1
15 6 8 1
16 9 10 1
17 9 16 1
18 3 10 1
19 10 12 1
20 4 11 1
21 5 11 1
22 5 12 1
23 6 12 1
24 12 15 1
25 13 14 1
26 14 15 1
27 15 21 2
28 15 22 2
29 16 19 2
30 7 17 1
31 17 20 2
32 17 19 2
33 21 31 1
34 22 32 1
@<TRIPOS>SUBSTRUCTURE
1	UNK0	1	GROUP	1 ****	UNK
