MODEL 1
REMARK VINA RESULT:      -7.6      0.000      0.000
REMARK  5 active torsions:
REMARK  status: ('A' for Active; 'I' for Inactive)
REMARK    1  A    between atoms: C_6  and  C_7 
REMARK    2  A    between atoms: C_7  and  O_8 
REMARK    3  A    between atoms: O_8  and  C_9 
REMARK       I    between atoms: C_9  and  N_10 
REMARK    4  A    between atoms: C_24  and  O_25 
REMARK    5  A    between atoms: C_24  and  O_26 
ROOT
ATOM      1  N           0     135.601 132.624 147.049  0.00  0.00    -0.235 N 
ATOM      2  H           0     135.933 132.851 147.933  0.00  0.00     0.174 HD
ATOM      3  H           0     134.972 131.894 146.940  0.00  0.00     0.174 HD
ATOM      4  C           0     135.998 133.304 146.011  0.00  0.00     0.672 C 
ATOM      5  N           0     136.890 134.357 146.115  0.00  0.00    -0.218 N 
ATOM      6  C           0     137.748 134.653 144.972  0.00  0.00     0.151 C 
ATOM      7  C           0     136.971 134.789 143.677  0.00  0.00     0.180 C 
ATOM      8  N           0     136.299 136.105 143.648  0.00  0.00    -0.216 N 
ATOM      9  C           0     135.053 135.922 143.100  0.00  0.00     0.670 C 
ATOM     10  N           0     134.331 136.880 142.590  0.00  0.00    -0.235 N 
ATOM     11  H           0     134.666 137.789 142.581  0.00  0.00     0.174 HD
ATOM     12  H           0     133.456 136.683 142.218  0.00  0.00     0.174 HD
ATOM     13  C           0     135.830 133.793 143.530  0.00  0.00     0.217 C 
ATOM     14  N           0     134.662 134.608 143.156  0.00  0.00    -0.191 N 
ATOM     15  N           0     135.562 133.019 144.743  0.00  0.00    -0.183 N 
ATOM     16  C           0     134.783 131.850 144.294  0.00  0.00     0.150 C 
ATOM     17  C           0     135.421 131.460 142.940  0.00  0.00     0.093 C 
ATOM     18  C           0     136.113 132.752 142.435  0.00  0.00     0.209 C 
ATOM     19  H           0     136.942 134.886 146.928  0.00  0.00     0.178 HD
ATOM     20  H           0     136.671 136.945 143.959  0.00  0.00     0.178 HD
ATOM     21  H           0     133.770 134.273 142.978  0.00  0.00     0.180 HD
ENDROOT
BRANCH   6  22
ATOM     22  C           0     138.770 133.526 144.817  0.00  0.00     0.208 C 
BRANCH  22  23
ATOM     23  O           0     139.566 133.425 146.028  0.00  0.00    -0.302 OA
BRANCH  23  24
ATOM     24  C           0     139.638 132.255 146.691  0.00  0.00     0.360 C 
ATOM     25  N           0     140.704 131.448 146.522  0.00  0.00    -0.341 N 
ATOM     26  C           0     140.781 130.176 147.243  0.00  0.00     0.151 C 
ATOM     27  H           0     141.419 131.710 145.922  0.00  0.00     0.164 HD
ATOM     28  O           0     138.741 131.927 147.442  0.00  0.00    -0.239 OA
ENDBRANCH  23  24
ENDBRANCH  22  23
ENDBRANCH   6  22
BRANCH  18  29
ATOM     29  O           0     135.547 133.165 141.189  0.00  0.00    -0.362 OA
ATOM     30  H           0     136.132 132.836 140.493  0.00  0.00     0.213 HD
ENDBRANCH  18  29
BRANCH  18  31
ATOM     31  O           0     137.520 132.543 142.299  0.00  0.00    -0.362 OA
ATOM     32  H           0     137.806 132.046 143.078  0.00  0.00     0.213 HD
ENDBRANCH  18  31
TORSDOF 5
ENDMDL
MODEL 2
REMARK VINA RESULT:      -7.4      1.671      2.127
REMARK  5 active torsions:
REMARK  status: ('A' for Active; 'I' for Inactive)
REMARK    1  A    between atoms: C_6  and  C_7 
REMARK    2  A    between atoms: C_7  and  O_8 
REMARK    3  A    between atoms: O_8  and  C_9 
REMARK       I    between atoms: C_9  and  N_10 
REMARK    4  A    between atoms: C_24  and  O_25 
REMARK    5  A    between atoms: C_24  and  O_26 
ROOT
ATOM      1  N           0     135.021 132.370 146.877  0.00  0.00    -0.235 N 
ATOM      2  H           0     135.178 132.618 147.802  0.00  0.00     0.174 HD
ATOM      3  H           0     134.503 131.576 146.669  0.00  0.00     0.174 HD
ATOM      4  C           0     135.500 133.106 145.915  0.00  0.00     0.672 C 
ATOM      5  N           0     136.240 134.250 146.160  0.00  0.00    -0.218 N 
ATOM      6  C           0     137.233 134.658 145.170  0.00  0.00     0.151 C 
ATOM      7  C           0     136.664 134.727 143.766  0.00  0.00     0.180 C 
ATOM      8  N           0     135.863 135.961 143.625  0.00  0.00    -0.216 N 
ATOM      9  C           0     134.750 135.649 142.883  0.00  0.00     0.670 C 
ATOM     10  N           0     134.016 136.528 142.260  0.00  0.00    -0.235 N 
ATOM     11  H           0     134.245 137.469 142.303  0.00  0.00     0.174 HD
ATOM     12  H           0     133.241 136.241 141.752  0.00  0.00     0.174 HD
ATOM     13  C           0     135.681 133.613 143.439  0.00  0.00     0.217 C 
ATOM     14  N           0     134.505 134.299 142.878  0.00  0.00    -0.191 N 
ATOM     15  N           0     135.310 132.795 144.594  0.00  0.00    -0.183 N 
ATOM     16  C           0     134.750 131.554 144.027  0.00  0.00     0.150 C 
ATOM     17  C           0     135.637 131.259 142.796  0.00  0.00     0.093 C 
ATOM     18  C           0     136.253 132.627 142.406  0.00  0.00     0.209 C 
ATOM     19  H           0     136.100 134.768 146.969  0.00  0.00     0.178 HD
ATOM     20  H           0     136.083 136.832 143.990  0.00  0.00     0.178 HD
ATOM     21  H           0     133.696 133.869 142.559  0.00  0.00     0.180 HD
ENDROOT
BRANCH   6  22
ATOM     22  C           0     138.386 133.654 145.186  0.00  0.00     0.208 C 
BRANCH  22  23
ATOM     23  O           0     139.637 134.352 144.947  0.00  0.00    -0.302 OA
BRANCH  23  24
ATOM     24  C           0     139.961 135.427 145.690  0.00  0.00     0.360 C 
ATOM     25  N           0     140.242 135.282 147.000  0.00  0.00    -0.341 N 
ATOM     26  C           0     140.594 136.452 147.807  0.00  0.00     0.151 C 
ATOM     27  H           0     140.211 134.402 147.408  0.00  0.00     0.164 HD
ATOM     28  O           0     140.000 136.529 145.179  0.00  0.00    -0.239 OA
ENDBRANCH  23  24
ENDBRANCH  22  23
ENDBRANCH   6  22
BRANCH  18  29
ATOM     29  O           0     135.852 132.994 141.084  0.00  0.00    -0.362 OA
ATOM     30  H           0     136.661 133.166 140.584  0.00  0.00     0.213 HD
ENDBRANCH  18  29
BRANCH  18  31
ATOM     31  O           0     137.677 132.578 142.500  0.00  0.00    -0.362 OA
ATOM     32  H           0     137.923 133.078 143.291  0.00  0.00     0.213 HD
ENDBRANCH  18  31
TORSDOF 5
ENDMDL
MODEL 3
REMARK VINA RESULT:      -7.3      2.229      5.669
REMARK  5 active torsions:
REMARK  status: ('A' for Active; 'I' for Inactive)
REMARK    1  A    between atoms: C_6  and  C_7 
REMARK    2  A    between atoms: C_7  and  O_8 
REMARK    3  A    between atoms: O_8  and  C_9 
REMARK       I    between atoms: C_9  and  N_10 
REMARK    4  A    between atoms: C_24  and  O_25 
REMARK    5  A    between atoms: C_24  and  O_26 
ROOT
ATOM      1  N           0     136.248 134.858 147.811  0.00  0.00    -0.235 N 
ATOM      2  H           0     135.431 134.785 148.329  0.00  0.00     0.174 HD
ATOM      3  H           0     136.796 135.655 147.881  0.00  0.00     0.174 HD
ATOM      4  C           0     136.611 133.883 147.027  0.00  0.00     0.672 C 
ATOM      5  N           0     135.866 132.724 146.897  0.00  0.00    -0.218 N 
ATOM      6  C           0     135.937 131.993 145.636  0.00  0.00     0.151 C 
ATOM      7  C           0     137.364 131.717 145.200  0.00  0.00     0.180 C 
ATOM      8  N           0     137.910 130.600 146.000  0.00  0.00    -0.216 N 
ATOM      9  C           0     139.217 130.901 146.294  0.00  0.00     0.670 C 
ATOM     10  N           0     140.106 130.021 146.659  0.00  0.00    -0.235 N 
ATOM     11  H           0     139.861 129.086 146.737  0.00  0.00     0.174 HD
ATOM     12  H           0     141.015 130.301 146.852  0.00  0.00     0.174 HD
ATOM     13  C           0     138.327 132.862 145.467  0.00  0.00     0.217 C 
ATOM     14  N           0     139.471 132.242 146.155  0.00  0.00    -0.191 N 
ATOM     15  N           0     137.753 133.942 146.272  0.00  0.00    -0.183 N 
ATOM     16  C           0     138.630 135.105 146.044  0.00  0.00     0.150 C 
ATOM     17  C           0     139.000 135.020 144.545  0.00  0.00     0.093 C 
ATOM     18  C           0     138.800 133.531 144.165  0.00  0.00     0.209 C 
ATOM     19  H           0     135.312 132.406 147.628  0.00  0.00     0.178 HD
ATOM     20  H           0     137.431 129.800 146.269  0.00  0.00     0.178 HD
ATOM     21  H           0     140.269 132.703 146.458  0.00  0.00     0.180 HD
ENDROOT
BRANCH   6  22
ATOM     22  C           0     135.240 132.813 144.550  0.00  0.00     0.208 C 
BRANCH  22  23
ATOM     23  O           0     135.096 132.005 143.352  0.00  0.00    -0.302 OA
BRANCH  23  24
ATOM     24  C           0     134.509 132.523 142.256  0.00  0.00     0.360 C 
ATOM     25  N           0     133.166 132.535 142.153  0.00  0.00    -0.341 N 
ATOM     26  C           0     132.528 133.098 140.961  0.00  0.00     0.151 C 
ATOM     27  H           0     132.621 132.170 142.868  0.00  0.00     0.164 HD
ATOM     28  O           0     135.191 132.980 141.361  0.00  0.00    -0.239 OA
ENDBRANCH  23  24
ENDBRANCH  22  23
ENDBRANCH   6  22
BRANCH  18  29
ATOM     29  O           0     140.034 132.959 143.726  0.00  0.00    -0.362 OA
ATOM     30  H           0     140.616 132.923 144.497  0.00  0.00     0.213 HD
ENDBRANCH  18  29
BRANCH  18  31
ATOM     31  O           0     137.803 133.404 143.150  0.00  0.00    -0.362 OA
ATOM     32  H           0     137.225 132.676 143.415  0.00  0.00     0.213 HD
ENDBRANCH  18  31
TORSDOF 5
ENDMDL
MODEL 4
REMARK VINA RESULT:      -7.1      2.460      4.108
REMARK  5 active torsions:
REMARK  status: ('A' for Active; 'I' for Inactive)
REMARK    1  A    between atoms: C_6  and  C_7 
REMARK    2  A    between atoms: C_7  and  O_8 
REMARK    3  A    between atoms: O_8  and  C_9 
REMARK       I    between atoms: C_9  and  N_10 
REMARK    4  A    between atoms: C_24  and  O_25 
REMARK    5  A    between atoms: C_24  and  O_26 
ROOT
ATOM      1  N           0     138.664 130.515 146.016  0.00  0.00    -0.235 N 
ATOM      2  H           0     138.257 129.831 146.573  0.00  0.00     0.174 HD
ATOM      3  H           0     139.613 130.479 145.821  0.00  0.00     0.174 HD
ATOM      4  C           0     137.933 131.475 145.526  0.00  0.00     0.672 C 
ATOM      5  N           0     136.574 131.567 145.770  0.00  0.00    -0.218 N 
ATOM      6  C           0     135.956 132.889 145.758  0.00  0.00     0.151 C 
ATOM      7  C           0     136.289 133.679 144.507  0.00  0.00     0.180 C 
ATOM      8  N           0     135.475 133.173 143.381  0.00  0.00    -0.216 N 
ATOM      9  C           0     136.276 133.161 142.265  0.00  0.00     0.670 C 
ATOM     10  N           0     135.825 133.126 141.042  0.00  0.00    -0.235 N 
ATOM     11  H           0     134.870 133.107 140.877  0.00  0.00     0.174 HD
ATOM     12  H           0     136.446 133.119 140.296  0.00  0.00     0.174 HD
ATOM     13  C           0     137.722 133.508 144.028  0.00  0.00     0.217 C 
ATOM     14  N           0     137.607 133.190 142.595  0.00  0.00    -0.191 N 
ATOM     15  N           0     138.462 132.465 144.739  0.00  0.00    -0.183 N 
ATOM     16  C           0     139.885 132.749 144.474  0.00  0.00     0.150 C 
ATOM     17  C           0     139.983 134.291 144.511  0.00  0.00     0.093 C 
ATOM     18  C           0     138.547 134.793 144.213  0.00  0.00     0.209 C 
ATOM     19  H           0     136.046 130.772 145.943  0.00  0.00     0.178 HD
ATOM     20  H           0     134.546 132.899 143.423  0.00  0.00     0.178 HD
ATOM     21  H           0     138.347 133.029 141.988  0.00  0.00     0.180 HD
ENDROOT
BRANCH   6  22
ATOM     22  C           0     136.442 133.673 146.979  0.00  0.00     0.208 C 
BRANCH  22  23
ATOM     23  O           0     135.528 133.460 148.086  0.00  0.00    -0.302 OA
BRANCH  23  24
ATOM     24  C           0     135.303 132.213 148.544  0.00  0.00     0.360 C 
ATOM     25  N           0     134.048 131.727 148.588  0.00  0.00    -0.341 N 
ATOM     26  C           0     133.805 130.371 149.088  0.00  0.00     0.151 C 
ATOM     27  H           0     133.305 132.274 148.289  0.00  0.00     0.164 HD
ATOM     28  O           0     136.234 131.528 148.919  0.00  0.00    -0.239 OA
ENDBRANCH  23  24
ENDBRANCH  22  23
ENDBRANCH   6  22
BRANCH  18  29
ATOM     29  O           0     138.532 135.577 143.018  0.00  0.00    -0.362 OA
ATOM     30  H           0     138.510 136.504 143.291  0.00  0.00     0.213 HD
ENDBRANCH  18  29
BRANCH  18  31
ATOM     31  O           0     138.045 135.552 145.314  0.00  0.00    -0.362 OA
ATOM     32  H           0     138.727 136.199 145.543  0.00  0.00     0.213 HD
ENDBRANCH  18  31
TORSDOF 5
ENDMDL
MODEL 5
REMARK VINA RESULT:      -7.1      2.399      2.857
REMARK  5 active torsions:
REMARK  status: ('A' for Active; 'I' for Inactive)
REMARK    1  A    between atoms: C_6  and  C_7 
REMARK    2  A    between atoms: C_7  and  O_8 
REMARK    3  A    between atoms: O_8  and  C_9 
REMARK       I    between atoms: C_9  and  N_10 
REMARK    4  A    between atoms: C_24  and  O_25 
REMARK    5  A    between atoms: C_24  and  O_26 
ROOT
ATOM      1  N           0     135.811 134.699 146.903  0.00  0.00    -0.235 N 
ATOM      2  H           0     136.130 135.588 147.127  0.00  0.00     0.174 HD
ATOM      3  H           0     135.448 134.126 147.595  0.00  0.00     0.174 HD
ATOM      4  C           0     135.866 134.280 145.671  0.00  0.00     0.672 C 
ATOM      5  N           0     136.370 135.062 144.646  0.00  0.00    -0.218 N 
ATOM      6  C           0     136.975 134.394 143.499  0.00  0.00     0.151 C 
ATOM      7  C           0     136.081 133.321 142.908  0.00  0.00     0.180 C 
ATOM      8  N           0     135.016 133.961 142.107  0.00  0.00    -0.216 N 
ATOM      9  C           0     133.854 133.265 142.332  0.00  0.00     0.670 C 
ATOM     10  N           0     132.814 133.304 141.547  0.00  0.00    -0.235 N 
ATOM     11  H           0     132.832 133.849 140.745  0.00  0.00     0.174 HD
ATOM     12  H           0     132.022 132.788 141.764  0.00  0.00     0.174 HD
ATOM     13  C           0     135.320 132.507 143.943  0.00  0.00     0.217 C 
ATOM     14  N           0     133.921 132.525 143.486  0.00  0.00    -0.191 N 
ATOM     15  N           0     135.433 133.032 145.305  0.00  0.00    -0.183 N 
ATOM     16  C           0     135.042 131.915 146.185  0.00  0.00     0.150 C 
ATOM     17  C           0     135.645 130.662 145.508  0.00  0.00     0.093 C 
ATOM     18  C           0     135.827 131.057 144.021  0.00  0.00     0.209 C 
ATOM     19  H           0     136.321 136.031 144.691  0.00  0.00     0.178 HD
ATOM     20  H           0     135.120 134.733 141.528  0.00  0.00     0.178 HD
ATOM     21  H           0     133.175 132.087 143.924  0.00  0.00     0.180 HD
ENDROOT
BRANCH   6  22
ATOM     22  C           0     138.291 133.751 143.939  0.00  0.00     0.208 C 
BRANCH  22  23
ATOM     23  O           0     139.331 134.763 143.990  0.00  0.00    -0.302 OA
BRANCH  23  24
ATOM     24  C           0     139.581 135.415 145.141  0.00  0.00     0.360 C 
ATOM     25  N           0     139.475 134.769 146.319  0.00  0.00    -0.341 N 
ATOM     26  C           0     139.746 135.479 147.571  0.00  0.00     0.151 C 
ATOM     27  H           0     139.218 133.833 146.337  0.00  0.00     0.164 HD
ATOM     28  O           0     139.901 136.587 145.118  0.00  0.00    -0.239 OA
ENDBRANCH  23  24
ENDBRANCH  22  23
ENDBRANCH   6  22
BRANCH  18  29
ATOM     29  O           0     135.045 130.206 143.180  0.00  0.00    -0.362 OA
ATOM     30  H           0     135.295 130.407 142.268  0.00  0.00     0.213 HD
ENDBRANCH  18  29
BRANCH  18  31
ATOM     31  O           0     137.205 130.992 143.652  0.00  0.00    -0.362 OA
ATOM     32  H           0     137.646 131.739 144.081  0.00  0.00     0.213 HD
ENDBRANCH  18  31
TORSDOF 5
ENDMDL
MODEL 6
REMARK VINA RESULT:      -6.9      3.031      4.933
REMARK  5 active torsions:
REMARK  status: ('A' for Active; 'I' for Inactive)
REMARK    1  A    between atoms: C_6  and  C_7 
REMARK    2  A    between atoms: C_7  and  O_8 
REMARK    3  A    between atoms: O_8  and  C_9 
REMARK       I    between atoms: C_9  and  N_10 
REMARK    4  A    between atoms: C_24  and  O_25 
REMARK    5  A    between atoms: C_24  and  O_26 
ROOT
ATOM      1  N           0     139.074 130.481 145.928  0.00  0.00    -0.235 N 
ATOM      2  H           0     139.244 129.633 146.369  0.00  0.00     0.174 HD
ATOM      3  H           0     139.810 130.987 145.551  0.00  0.00     0.174 HD
ATOM      4  C           0     137.856 130.936 145.839  0.00  0.00     0.672 C 
ATOM      5  N           0     136.772 130.249 146.357  0.00  0.00    -0.218 N 
ATOM      6  C           0     135.608 131.016 146.789  0.00  0.00     0.151 C 
ATOM      7  C           0     135.120 131.985 145.729  0.00  0.00     0.180 C 
ATOM      8  N           0     134.375 131.238 144.693  0.00  0.00    -0.216 N 
ATOM      9  C           0     134.707 131.779 143.475  0.00  0.00     0.670 C 
ATOM     10  N           0     133.997 131.632 142.391  0.00  0.00    -0.235 N 
ATOM     11  H           0     133.177 131.115 142.415  0.00  0.00     0.174 HD
ATOM     12  H           0     134.288 132.041 141.561  0.00  0.00     0.174 HD
ATOM     13  C           0     136.235 132.671 144.955  0.00  0.00     0.217 C 
ATOM     14  N           0     135.878 132.492 143.538  0.00  0.00    -0.191 N 
ATOM     15  N           0     137.566 132.130 145.232  0.00  0.00    -0.183 N 
ATOM     16  C           0     138.510 133.166 144.775  0.00  0.00     0.150 C 
ATOM     17  C           0     137.836 134.501 145.168  0.00  0.00     0.093 C 
ATOM     18  C           0     136.327 134.170 145.285  0.00  0.00     0.209 C 
ATOM     19  H           0     136.786 129.281 146.429  0.00  0.00     0.178 HD
ATOM     20  H           0     133.764 130.501 144.846  0.00  0.00     0.178 HD
ATOM     21  H           0     136.383 132.823 142.779  0.00  0.00     0.180 HD
ENDROOT
BRANCH   6  22
ATOM     22  C           0     135.976 131.806 148.046  0.00  0.00     0.208 C 
BRANCH  22  23
ATOM     23  O           0     134.771 132.352 148.643  0.00  0.00    -0.302 OA
BRANCH  23  24
ATOM     24  C           0     133.912 131.542 149.291  0.00  0.00     0.360 C 
ATOM     25  N           0     132.586 131.658 149.082  0.00  0.00    -0.341 N 
ATOM     26  C           0     131.654 130.776 149.787  0.00  0.00     0.151 C 
ATOM     27  H           0     132.250 132.325 148.464  0.00  0.00     0.164 HD
ATOM     28  O           0     134.334 130.706 150.066  0.00  0.00    -0.239 OA
ENDBRANCH  23  24
ENDBRANCH  22  23
ENDBRANCH   6  22
BRANCH  18  29
ATOM     29  O           0     135.574 134.939 144.345  0.00  0.00    -0.362 OA
ATOM     30  H           0     134.858 134.372 144.028  0.00  0.00     0.213 HD
ENDBRANCH  18  29
BRANCH  18  31
ATOM     31  O           0     135.864 134.415 146.614  0.00  0.00    -0.362 OA
ATOM     32  H           0     135.424 133.607 146.912  0.00  0.00     0.213 HD
ENDBRANCH  18  31
TORSDOF 5
ENDMDL
MODEL 7
REMARK VINA RESULT:      -6.8      2.672      4.279
REMARK  5 active torsions:
REMARK  status: ('A' for Active; 'I' for Inactive)
REMARK    1  A    between atoms: C_6  and  C_7 
REMARK    2  A    between atoms: C_7  and  O_8 
REMARK    3  A    between atoms: O_8  and  C_9 
REMARK       I    between atoms: C_9  and  N_10 
REMARK    4  A    between atoms: C_24  and  O_25 
REMARK    5  A    between atoms: C_24  and  O_26 
ROOT
ATOM      1  N           0     138.884 130.416 146.065  0.00  0.00    -0.235 N 
ATOM      2  H           0     138.525 129.679 146.585  0.00  0.00     0.174 HD
ATOM      3  H           0     139.814 130.410 145.793  0.00  0.00     0.174 HD
ATOM      4  C           0     138.112 131.411 145.729  0.00  0.00     0.672 C 
ATOM      5  N           0     136.777 131.463 146.088  0.00  0.00    -0.218 N 
ATOM      6  C           0     136.154 132.773 146.253  0.00  0.00     0.151 C 
ATOM      7  C           0     136.383 133.682 145.060  0.00  0.00     0.180 C 
ATOM      8  N           0     135.483 133.277 143.960  0.00  0.00    -0.216 N 
ATOM      9  C           0     136.191 133.380 142.787  0.00  0.00     0.670 C 
ATOM     10  N           0     135.645 133.456 141.607  0.00  0.00    -0.235 N 
ATOM     11  H           0     134.679 133.442 141.517  0.00  0.00     0.174 HD
ATOM     12  H           0     136.203 133.528 140.817  0.00  0.00     0.174 HD
ATOM     13  C           0     137.774 133.575 144.455  0.00  0.00     0.217 C 
ATOM     14  N           0     137.545 133.393 143.012  0.00  0.00    -0.191 N 
ATOM     15  N           0     138.572 132.477 145.001  0.00  0.00    -0.183 N 
ATOM     16  C           0     139.968 132.801 144.653  0.00  0.00     0.150 C 
ATOM     17  C           0     140.063 134.334 144.830  0.00  0.00     0.093 C 
ATOM     18  C           0     138.606 134.846 144.696  0.00  0.00     0.209 C 
ATOM     19  H           0     136.267 130.649 146.226  0.00  0.00     0.178 HD
ATOM     20  H           0     134.561 132.989 144.049  0.00  0.00     0.178 HD
ATOM     21  H           0     138.234 133.299 142.335  0.00  0.00     0.180 HD
ENDROOT
BRANCH   6  22
ATOM     22  C           0     136.734 133.442 147.500  0.00  0.00     0.208 C 
BRANCH  22  23
ATOM     23  O           0     135.956 134.626 147.820  0.00  0.00    -0.302 OA
BRANCH  23  24
ATOM     24  C           0     136.333 135.426 148.835  0.00  0.00     0.360 C 
ATOM     25  N           0     137.419 136.214 148.705  0.00  0.00    -0.341 N 
ATOM     26  C           0     137.829 137.084 149.809  0.00  0.00     0.151 C 
ATOM     27  H           0     137.929 136.204 147.880  0.00  0.00     0.164 HD
ATOM     28  O           0     135.694 135.438 149.868  0.00  0.00    -0.239 OA
ENDBRANCH  23  24
ENDBRANCH  22  23
ENDBRANCH   6  22
BRANCH  18  29
ATOM     29  O           0     138.492 135.740 143.587  0.00  0.00    -0.362 OA
ATOM     30  H           0     138.675 135.222 142.790  0.00  0.00     0.213 HD
ENDBRANCH  18  29
BRANCH  18  31
ATOM     31  O           0     138.191 135.490 145.901  0.00  0.00    -0.362 OA
ATOM     32  H           0     137.230 135.395 145.953  0.00  0.00     0.213 HD
ENDBRANCH  18  31
TORSDOF 5
ENDMDL
MODEL 8
REMARK VINA RESULT:      -6.8      1.987      5.861
REMARK  5 active torsions:
REMARK  status: ('A' for Active; 'I' for Inactive)
REMARK    1  A    between atoms: C_6  and  C_7 
REMARK    2  A    between atoms: C_7  and  O_8 
REMARK    3  A    between atoms: O_8  and  C_9 
REMARK       I    between atoms: C_9  and  N_10 
REMARK    4  A    between atoms: C_24  and  O_25 
REMARK    5  A    between atoms: C_24  and  O_26 
ROOT
ATOM      1  N           0     135.792 136.103 143.364  0.00  0.00    -0.235 N 
ATOM      2  H           0     135.041 136.583 142.979  0.00  0.00     0.174 HD
ATOM      3  H           0     136.673 136.508 143.370  0.00  0.00     0.174 HD
ATOM      4  C           0     135.614 134.919 143.877  0.00  0.00     0.672 C 
ATOM      5  N           0     134.375 134.302 143.897  0.00  0.00    -0.218 N 
ATOM      6  C           0     134.328 132.843 143.882  0.00  0.00     0.151 C 
ATOM      7  C           0     135.210 132.219 144.946  0.00  0.00     0.180 C 
ATOM      8  N           0     134.542 132.331 146.260  0.00  0.00    -0.216 N 
ATOM      9  C           0     135.506 132.632 147.190  0.00  0.00     0.670 C 
ATOM     10  N           0     135.365 132.454 148.474  0.00  0.00    -0.235 N 
ATOM     11  H           0     134.539 132.088 148.825  0.00  0.00     0.174 HD
ATOM     12  H           0     136.087 132.687 149.079  0.00  0.00     0.174 HD
ATOM     13  C           0     136.538 132.932 145.149  0.00  0.00     0.217 C 
ATOM     14  N           0     136.636 133.142 146.603  0.00  0.00    -0.191 N 
ATOM     15  N           0     136.643 134.201 144.428  0.00  0.00    -0.183 N 
ATOM     16  C           0     138.086 134.498 144.373  0.00  0.00     0.150 C 
ATOM     17  C           0     138.754 133.122 144.144  0.00  0.00     0.093 C 
ATOM     18  C           0     137.725 132.085 144.661  0.00  0.00     0.209 C 
ATOM     19  H           0     133.559 134.827 143.922  0.00  0.00     0.178 HD
ATOM     20  H           0     133.594 132.215 146.433  0.00  0.00     0.178 HD
ATOM     21  H           0     137.375 133.567 147.066  0.00  0.00     0.180 HD
ENDROOT
BRANCH   6  22
ATOM     22  C           0     134.787 132.349 142.509  0.00  0.00     0.208 C 
BRANCH  22  23
ATOM     23  O           0     133.629 132.129 141.662  0.00  0.00    -0.302 OA
BRANCH  23  24
ATOM     24  C           0     133.079 133.161 140.992  0.00  0.00     0.360 C 
ATOM     25  N           0     133.868 134.105 140.443  0.00  0.00    -0.341 N 
ATOM     26  C           0     133.269 135.226 139.716  0.00  0.00     0.151 C 
ATOM     27  H           0     134.831 134.042 140.530  0.00  0.00     0.164 HD
ATOM     28  O           0     131.871 133.239 140.884  0.00  0.00    -0.239 OA
ENDBRANCH  23  24
ENDBRANCH  22  23
ENDBRANCH   6  22
BRANCH  18  29
ATOM     29  O           0     138.281 131.329 145.740  0.00  0.00    -0.362 OA
ATOM     30  H           0     139.100 131.772 145.999  0.00  0.00     0.213 HD
ENDBRANCH  18  29
BRANCH  18  31
ATOM     31  O           0     137.316 131.217 143.603  0.00  0.00    -0.362 OA
ATOM     32  H           0     136.676 130.599 143.979  0.00  0.00     0.213 HD
ENDBRANCH  18  31
TORSDOF 5
ENDMDL
MODEL 9
REMARK VINA RESULT:      -6.8      1.973      5.401
REMARK  5 active torsions:
REMARK  status: ('A' for Active; 'I' for Inactive)
REMARK    1  A    between atoms: C_6  and  C_7 
REMARK    2  A    between atoms: C_7  and  O_8 
REMARK    3  A    between atoms: O_8  and  C_9 
REMARK       I    between atoms: C_9  and  N_10 
REMARK    4  A    between atoms: C_24  and  O_25 
REMARK    5  A    between atoms: C_24  and  O_26 
ROOT
ATOM      1  N           0     139.935 135.770 143.951  0.00  0.00    -0.235 N 
ATOM      2  H           0     139.822 136.543 143.374  0.00  0.00     0.174 HD
ATOM      3  H           0     140.824 135.489 144.217  0.00  0.00     0.174 HD
ATOM      4  C           0     138.890 135.116 144.373  0.00  0.00     0.672 C 
ATOM      5  N           0     137.601 135.481 144.026  0.00  0.00    -0.218 N 
ATOM      6  C           0     136.577 134.442 143.975  0.00  0.00     0.151 C 
ATOM      7  C           0     136.532 133.603 145.238  0.00  0.00     0.180 C 
ATOM      8  N           0     135.853 134.366 146.306  0.00  0.00    -0.216 N 
ATOM      9  C           0     136.525 134.125 147.479  0.00  0.00     0.670 C 
ATOM     10  N           0     136.022 134.325 148.665  0.00  0.00    -0.235 N 
ATOM     11  H           0     135.119 134.664 148.758  0.00  0.00     0.174 HD
ATOM     12  H           0     136.551 134.134 149.455  0.00  0.00     0.174 HD
ATOM     13  C           0     137.900 133.290 145.825  0.00  0.00     0.217 C 
ATOM     14  N           0     137.791 133.648 147.249  0.00  0.00    -0.191 N 
ATOM     15  N           0     138.997 134.016 145.185  0.00  0.00    -0.183 N 
ATOM     16  C           0     140.219 133.277 145.552  0.00  0.00     0.150 C 
ATOM     17  C           0     139.798 131.790 145.503  0.00  0.00     0.093 C 
ATOM     18  C           0     138.259 131.801 145.686  0.00  0.00     0.209 C 
ATOM     19  H           0     137.384 136.405 143.824  0.00  0.00     0.178 HD
ATOM     20  H           0     135.074 134.935 146.197  0.00  0.00     0.178 HD
ATOM     21  H           0     138.494 133.560 147.912  0.00  0.00     0.180 HD
ENDROOT
BRANCH   6  22
ATOM     22  C           0     136.863 133.525 142.785  0.00  0.00     0.208 C 
BRANCH  22  23
ATOM     23  O           0     135.829 132.510 142.697  0.00  0.00    -0.302 OA
BRANCH  23  24
ATOM     24  C           0     134.722 132.738 141.964  0.00  0.00     0.360 C 
ATOM     25  N           0     134.655 133.819 141.163  0.00  0.00    -0.341 N 
ATOM     26  C           0     133.451 134.067 140.367  0.00  0.00     0.151 C 
ATOM     27  H           0     135.404 134.433 141.113  0.00  0.00     0.164 HD
ATOM     28  O           0     133.784 131.969 142.027  0.00  0.00    -0.239 OA
ENDBRANCH  23  24
ENDBRANCH  22  23
ENDBRANCH   6  22
BRANCH  18  29
ATOM     29  O           0     137.893 131.084 146.867  0.00  0.00    -0.362 OA
ATOM     30  H           0     137.423 131.706 147.439  0.00  0.00     0.213 HD
ENDBRANCH  18  29
BRANCH  18  31
ATOM     31  O           0     137.616 131.240 144.541  0.00  0.00    -0.362 OA
ATOM     32  H           0     138.205 130.554 144.197  0.00  0.00     0.213 HD
ENDBRANCH  18  31
TORSDOF 5
ENDMDL
