# created with PyMOL 2.3.4
@<TRIPOS>MOLECULE
ligand_out_0001
46 49 1                 
SMALL
USER_CHARGES
@<TRIPOS>ATOM
1	   N	134.676	131.843	146.499	N.3	1	UNK0	-0.235	
2	   N	136.188	133.595	146.076	N.3	1	UNK0	-0.218	
3	   N	136.097	135.754	143.879	N.3	1	UNK0	-0.216	
4	   N	134.369	136.841	142.685	N.3	1	UNK0	-0.235	
5	   N	134.483	134.489	142.903	N.3	1	UNK0	-0.191	
6	   N	135.030	132.601	144.313	N.3	1	UNK0	-0.183	
7	   N	138.838	132.021	148.415	N.pl3	1	UNK0	-0.335	
8	   N	136.148	131.328	150.499	N.pl3	1	UNK0	-0.359	
9	   N	133.445	129.043	149.206	N.pl3	1	UNK0	-0.288	
10	   C	135.270	132.646	145.661	C.3	1	UNK0	0.672	
11	   C	137.234	133.999	145.141	C.3	1	UNK0	0.151	
12	   C	136.684	134.400	143.785	C.3	1	UNK0	0.180	
13	   C	134.947	135.760	143.128	C.3	1	UNK0	0.670	
14	   C	135.529	133.535	143.303	C.3	1	UNK0	0.217	
15	   C	134.270	131.585	143.562	C.3	1	UNK0	0.150	
16	   C	135.096	131.365	142.272	C.3	1	UNK0	0.093	
17	   C	135.929	132.661	142.102	C.3	1	UNK0	0.209	
18	   C	138.207	132.834	144.952	C.2	1	UNK0	0.208	
19	   C	138.523	131.803	147.123	C.2	1	UNK0	0.360	
20	   C	138.348	131.110	149.452	C.3	1	UNK0	0.144	
21	   C	137.500	131.891	150.458	C.3	1	UNK0	0.142	
22	   C	135.141	131.949	149.853	C.2	1	UNK0	0.219	
23	   C	133.750	131.370	149.893	C.3	1	UNK0	0.123	
24	   C	133.817	129.906	150.330	C.3	1	UNK0	0.144	
25	   C	132.218	128.524	149.068	C.2	1	UNK0	0.226	
26	   C	132.171	127.690	147.806	C.3	1	UNK0	0.112	
27	   C	133.600	127.810	147.240	C.3	1	UNK0	0.112	
28	   C	134.303	128.703	148.237	C.2	1	UNK0	0.226	
29	   O	138.973	132.642	146.170	O.2	1	UNK0	-0.302	
30	   O	137.832	130.851	146.818	O.co2	1	UNK0	-0.239	
31	   O	135.354	132.972	149.238	O.2	1	UNK0	-0.274	
32	   O	131.291	128.701	149.828	O.2	1	UNK0	-0.273	
33	   O	135.462	129.056	148.170	O.2	1	UNK0	-0.273	
34	   O	135.594	133.311	140.873	O.2	1	UNK0	-0.362	
35	   O	137.326	132.366	142.145	O.2	1	UNK0	-0.362	
36	   H	134.873	131.900	147.448	 H	1	UNK0	0.174	
37	   H	134.034	131.192	146.175	 H	1	UNK0	0.174	
38	   H	134.751	137.711	142.881	 H	1	UNK0	0.174	
39	   H	133.556	136.775	142.159	 H	1	UNK0	0.174	
40	   H	136.138	133.981	146.964	 H	1	UNK0	0.178	
41	   H	136.458	136.501	144.380	 H	1	UNK0	0.178	
42	   H	133.613	134.259	142.538	 H	1	UNK0	0.180	
43	   H	139.389	132.781	148.658	 H	1	UNK0	0.164	
44	   H	135.977	130.510	150.990	 H	1	UNK0	0.162	
45	   H	135.988	132.787	140.164	 H	1	UNK0	0.213	
46	   H	137.419	131.521	142.608	 H	1	UNK0	0.213	
@<TRIPOS>BOND
1 1 10 1
2 1 36 1
3 1 37 1
4 2 11 1
5 2 40 1
6 3 13 1
7 3 41 1
8 4 38 1
9 4 39 1
10 5 42 1
11 6 15 1
12 7 20 1
13 7 43 1
14 8 22 1
15 8 44 1
16 9 25 1
17 9 28 1
18 2 10 1
19 6 10 1
20 11 12 1
21 11 18 1
22 3 12 1
23 12 14 1
24 4 13 1
25 5 13 1
26 5 14 1
27 6 14 1
28 14 17 1
29 15 16 1
30 16 17 1
31 17 34 2
32 17 35 2
33 18 29 2
34 7 19 1
35 19 30 2
36 20 21 1
37 8 21 1
38 22 23 1
39 22 31 2
40 23 24 1
41 9 24 1
42 25 26 1
43 25 32 2
44 26 27 1
45 27 28 1
46 28 33 2
47 19 29 2
48 34 45 1
49 35 46 1
@<TRIPOS>SUBSTRUCTURE
1	UNK0	1	GROUP	1 ****	UNK
