# created with PyMOL 2.3.4
@<TRIPOS>MOLECULE
ligand_out_0001
32 34 1                 
SMALL
USER_CHARGES
@<TRIPOS>ATOM
1	   N	135.281	136.788	143.249	N.3	1	UNK0	-0.235	
2	   N	133.940	134.863	143.058	N.3	1	UNK0	-0.218	
3	   N	134.090	132.225	144.642	N.3	1	UNK0	-0.216	
4	   N	134.785	131.631	146.824	N.3	1	UNK0	-0.235	
5	   N	136.114	132.947	145.378	N.3	1	UNK0	-0.191	
6	   N	136.179	134.670	143.681	N.3	1	UNK0	-0.183	
7	   N	133.509	136.090	139.869	N.pl3	1	UNK0	-0.346	
8	   C	135.142	135.494	143.329	C.3	1	UNK0	0.672	
9	   C	133.976	133.492	142.558	C.3	1	UNK0	0.151	
10	   C	134.833	132.580	143.415	C.3	1	UNK0	0.180	
11	   C	134.984	132.231	145.684	C.3	1	UNK0	0.670	
12	   C	136.106	133.230	143.933	C.3	1	UNK0	0.217	
13	   C	137.604	135.020	143.828	C.3	1	UNK0	0.150	
14	   C	138.359	133.821	143.204	C.3	1	UNK0	0.093	
15	   C	137.364	132.635	143.277	C.3	1	UNK0	0.209	
16	   C	134.534	133.500	141.134	C.2	1	UNK0	0.208	
17	   C	133.552	134.839	139.369	C.2	1	UNK0	0.358	
18	   O	133.464	133.780	140.195	O.2	1	UNK0	-0.302	
19	   O	133.671	134.667	138.172	O.co2	1	UNK0	-0.239	
20	   O	137.901	131.584	144.081	O.2	1	UNK0	-0.362	
21	   O	137.061	132.157	141.965	O.2	1	UNK0	-0.362	
22	   H	134.527	137.342	142.993	 H	1	UNK0	0.174	
23	   H	136.137	137.197	143.450	 H	1	UNK0	0.174	
24	   H	133.962	131.140	146.975	 H	1	UNK0	0.174	
25	   H	135.459	131.674	147.519	 H	1	UNK0	0.174	
26	   H	133.097	135.320	143.198	 H	1	UNK0	0.178	
27	   H	133.142	132.024	144.701	 H	1	UNK0	0.178	
28	   H	136.802	133.219	146.006	 H	1	UNK0	0.180	
29	   H	133.415	136.227	140.825	 H	1	UNK0	0.161	
30	   H	133.572	136.853	139.273	 H	1	UNK0	0.161	
31	   H	137.496	131.666	144.956	 H	1	UNK0	0.213	
32	   H	136.833	131.221	142.055	 H	1	UNK0	0.213	
@<TRIPOS>BOND
1 1 8 1
2 1 22 1
3 1 23 1
4 2 9 1
5 2 26 1
6 3 11 1
7 3 27 1
8 4 24 1
9 4 25 1
10 5 28 1
11 6 13 1
12 7 29 1
13 7 30 1
14 2 8 1
15 6 8 1
16 9 10 1
17 9 16 1
18 3 10 1
19 10 12 1
20 4 11 1
21 5 11 1
22 5 12 1
23 6 12 1
24 12 15 1
25 13 14 1
26 14 15 1
27 15 20 2
28 15 21 2
29 16 18 2
30 7 17 1
31 17 19 2
32 17 18 2
33 20 31 1
34 21 32 1
@<TRIPOS>SUBSTRUCTURE
1	UNK0	1	GROUP	1 ****	UNK
