# created with PyMOL 2.3.4
@<TRIPOS>MOLECULE
ligand_out_0001
49 54 1                 
SMALL
USER_CHARGES
@<TRIPOS>ATOM
1	   N	137.839	135.169	148.524	N.3	1	UNK0	-0.235	
2	   N	136.135	134.367	147.068	N.3	1	UNK0	-0.211	
3	   N	136.732	132.968	144.603	N.pl3	1	UNK0	-0.185	
4	   N	138.746	132.715	145.568	N.3	1	UNK0	-0.191	
5	   N	137.781	132.915	147.749	N.3	1	UNK0	-0.180	
6	   N	135.490	131.214	148.245	N.pl3	1	UNK0	-0.219	
7	   N	134.087	135.008	141.953	N.pl3	1	UNK0	-0.213	
8	   N	138.638	133.800	143.466	N.3	1	UNK0	-0.235	
9	   C	137.306	134.211	147.815	C.3	1	UNK0	0.672	
10	   C	135.457	133.133	146.647	C.3	1	UNK0	0.221	
11	   C	136.439	132.270	145.858	C.3	1	UNK0	0.192	
12	   C	138.075	133.198	144.483	C.3	1	UNK0	0.674	
13	   C	137.794	132.121	146.517	C.3	1	UNK0	0.221	
14	   C	138.321	132.100	148.835	C.3	1	UNK0	0.190	
15	   C	138.270	130.634	148.397	C.3	1	UNK0	0.161	
16	   C	137.179	129.745	148.979	C.3	1	UNK0	0.075	
17	   C	135.973	130.544	149.471	C.3	1	UNK0	0.129	
18	   C	134.781	129.613	149.739	C.3	1	UNK0	0.061	
19	   C	134.170	129.377	148.348	C.2	1	UNK0	0.210	
20	   C	135.507	132.536	148.031	C.2	1	UNK0	0.269	
21	   C	138.176	130.678	146.871	C.3	1	UNK0	0.244	
22	   C	135.723	133.363	143.608	C.2	1	UNK0	0.325	
23	   C	134.649	135.472	143.086	C.2	1	UNK0	0.386	
24	   C	135.217	128.298	150.377	C.2	1	UNK0	0.173	
25	   O	134.956	130.177	147.438	O.2	1	UNK0	-0.274	
26	   O	135.496	133.264	149.007	O.2	1	UNK0	-0.269	
27	   O	135.103	134.611	144.016	O.2	1	UNK0	-0.282	
28	   O	134.747	136.670	143.269	O.co2	1	UNK0	-0.236	
29	   O	133.610	135.914	140.976	O.3	1	UNK0	-0.285	
30	   O	137.233	129.750	146.357	O.2	1	UNK0	-0.360	
31	   O	139.470	130.392	146.313	O.2	1	UNK0	-0.360	
32	   O	139.539	130.045	148.734	O.2	1	UNK0	-0.245	
33	   O	140.523	127.859	149.215	O.3	1	UNK0	-0.579	
34	   O	138.623	128.603	150.483	O.3	1	UNK0	-0.579	
35	   O	138.327	127.956	148.145	O.3	1	UNK0	-0.274	
36	   O	135.105	127.244	149.419	O.2	1	UNK0	-0.400	
37	   S	139.259	128.609	149.156	S.3	1	UNK0	0.241	
38	   H	137.419	136.042	148.551	 H	1	UNK0	0.174	
39	   H	138.652	135.004	149.027	 H	1	UNK0	0.174	
40	   H	135.788	135.258	146.842	 H	1	UNK0	0.178	
41	   H	139.707	132.756	145.705	 H	1	UNK0	0.180	
42	   H	134.010	134.052	141.807	 H	1	UNK0	0.199	
43	   H	133.254	135.381	140.251	 H	1	UNK0	0.244	
44	   H	139.518	133.523	143.166	 H	1	UNK0	0.174	
45	   H	138.175	134.521	143.013	 H	1	UNK0	0.174	
46	   H	137.723	129.135	145.796	 H	1	UNK0	0.213	
47	   H	139.975	131.215	146.339	 H	1	UNK0	0.213	
48	   H	137.469	128.394	148.230	 H	1	UNK0	0.234	
49	   H	135.862	126.658	149.557	 H	1	UNK0	0.209	
@<TRIPOS>BOND
1 1 9 1
2 1 38 1
3 1 39 1
4 2 10 1
5 2 40 1
6 3 12 1
7 3 22 1
8 4 41 1
9 5 14 1
10 6 20 1
11 7 29 1
12 7 42 1
13 8 44 1
14 8 45 1
15 2 9 1
16 5 9 1
17 10 11 1
18 10 20 1
19 3 11 1
20 11 13 1
21 4 12 1
22 8 12 1
23 4 13 1
24 5 13 1
25 13 21 1
26 14 15 1
27 15 16 1
28 15 21 1
29 15 32 2
30 16 17 1
31 16 48 1
32 6 17 1
33 17 18 1
34 18 19 1
35 18 24 1
36 19 25 2
37 20 26 2
38 21 30 2
39 21 31 2
40 22 27 2
41 7 23 1
42 23 28 2
43 24 36 2
44 6 25 1
45 23 27 2
46 29 43 1
47 30 46 1
48 31 47 1
49 32 37 1
50 35 48 1
51 36 49 1
52 33 37 1
53 34 37 1
54 35 37 1
@<TRIPOS>SUBSTRUCTURE
1	UNK0	1	GROUP	1 ****	UNK
