MODEL 1
REMARK VINA RESULT:      -7.8      0.000      0.000
REMARK  12 active torsions:
REMARK  status: ('A' for Active; 'I' for Inactive)
REMARK    1  A    between atoms: N_8  and  C_9 
REMARK    2  A    between atoms: C_9  and  O_10 
REMARK    3  A    between atoms: O_10  and  C_11 
REMARK       I    between atoms: C_11  and  N_12 
REMARK    4  A    between atoms: N_12  and  O_13 
REMARK    5  A    between atoms: C_15  and  N_16 
REMARK    6  A    between atoms: C_23  and  O_24 
REMARK    7  A    between atoms: O_24  and  S_25 
REMARK    8  A    between atoms: S_25  and  O_26 
REMARK    9  A    between atoms: C_31  and  C_32 
REMARK   10  A    between atoms: C_32  and  O_33 
REMARK   11  A    between atoms: C_39  and  O_40 
REMARK   12  A    between atoms: C_39  and  O_41 
ROOT
ATOM      1  N           0     137.839 135.169 148.524  0.00  0.00    -0.235 N 
ATOM      2  H           0     137.419 136.042 148.551  0.00  0.00     0.174 HD
ATOM      3  H           0     138.652 135.004 149.027  0.00  0.00     0.174 HD
ATOM      4  C           0     137.306 134.211 147.815  0.00  0.00     0.672 C 
ATOM      5  N           0     136.135 134.367 147.068  0.00  0.00    -0.211 N 
ATOM      6  C           0     135.457 133.133 146.647  0.00  0.00     0.221 C 
ATOM      7  C           0     136.439 132.270 145.858  0.00  0.00     0.192 A 
ATOM      8  N           0     136.732 132.968 144.603  0.00  0.00    -0.185 N 
ATOM      9  C           0     138.075 133.198 144.483  0.00  0.00     0.674 A 
ATOM     10  C           0     137.794 132.121 146.517  0.00  0.00     0.221 A 
ATOM     11  N           0     138.746 132.715 145.568  0.00  0.00    -0.191 N 
ATOM     12  N           0     137.781 132.915 147.749  0.00  0.00    -0.180 N 
ATOM     13  C           0     138.321 132.100 148.835  0.00  0.00     0.190 C 
ATOM     14  C           0     138.270 130.634 148.397  0.00  0.00     0.161 C 
ATOM     15  C           0     137.179 129.745 148.979  0.00  0.00     0.075 C 
ATOM     16  C           0     135.973 130.544 149.471  0.00  0.00     0.129 C 
ATOM     17  C           0     134.781 129.613 149.739  0.00  0.00     0.061 C 
ATOM     18  C           0     134.170 129.377 148.348  0.00  0.00     0.210 C 
ATOM     19  O           0     134.956 130.177 147.438  0.00  0.00    -0.274 OA
ATOM     20  N           0     135.490 131.214 148.245  0.00  0.00    -0.219 N 
ATOM     21  C           0     135.507 132.536 148.031  0.00  0.00     0.269 C 
ATOM     22  O           0     135.496 133.264 149.007  0.00  0.00    -0.269 OA
ATOM     23  C           0     138.176 130.678 146.871  0.00  0.00     0.244 C 
ATOM     24  H           0     135.788 135.258 146.842  0.00  0.00     0.178 HD
ATOM     25  H           0     139.707 132.756 145.705  0.00  0.00     0.180 HD
ENDROOT
BRANCH   8  26
ATOM     26  C           0     135.723 133.363 143.608  0.00  0.00     0.325 C 
BRANCH  26  27
ATOM     27  O           0     135.103 134.611 144.016  0.00  0.00    -0.282 OA
BRANCH  27  28
ATOM     28  C           0     134.649 135.472 143.086  0.00  0.00     0.386 C 
ATOM     29  N           0     134.087 135.008 141.953  0.00  0.00    -0.213 N 
ATOM     30  H           0     134.010 134.052 141.807  0.00  0.00     0.199 HD
ATOM     31  O           0     134.747 136.670 143.269  0.00  0.00    -0.236 OA
BRANCH  29  32
ATOM     32  O           0     133.610 135.914 140.976  0.00  0.00    -0.285 OA
ATOM     33  H           0     133.254 135.381 140.251  0.00  0.00     0.244 HD
ENDBRANCH  29  32
ENDBRANCH  27  28
ENDBRANCH  26  27
ENDBRANCH   8  26
BRANCH   9  34
ATOM     34  N           0     138.638 133.800 143.466  0.00  0.00    -0.235 N 
ATOM     35  H           0     139.518 133.523 143.166  0.00  0.00     0.174 HD
ATOM     36  H           0     138.175 134.521 143.013  0.00  0.00     0.174 HD
ENDBRANCH   9  34
BRANCH  23  37
ATOM     37  O           0     137.233 129.750 146.357  0.00  0.00    -0.360 OA
ATOM     38  H           0     137.723 129.135 145.796  0.00  0.00     0.213 HD
ENDBRANCH  23  37
BRANCH  23  39
ATOM     39  O           0     139.470 130.392 146.313  0.00  0.00    -0.360 OA
ATOM     40  H           0     139.975 131.215 146.339  0.00  0.00     0.213 HD
ENDBRANCH  23  39
BRANCH  14  41
ATOM     41  O           0     139.539 130.045 148.734  0.00  0.00    -0.245 OA
BRANCH  41  42
ATOM     42  S           0     139.259 128.609 149.156  0.00  0.00     0.241 S 
ATOM     43  O           0     140.523 127.859 149.215  0.00  0.00    -0.579 OA
ATOM     44  O           0     138.623 128.603 150.483  0.00  0.00    -0.579 OA
BRANCH  42  45
ATOM     45  O           0     138.327 127.956 148.145  0.00  0.00    -0.274 OA
ATOM     46  H           0     137.469 128.394 148.230  0.00  0.00     0.234 HD
ENDBRANCH  42  45
ENDBRANCH  41  42
ENDBRANCH  14  41
BRANCH  17  47
ATOM     47  C           0     135.217 128.298 150.377  0.00  0.00     0.173 C 
BRANCH  47  48
ATOM     48  O           0     135.105 127.244 149.419  0.00  0.00    -0.400 OA
ATOM     49  H           0     135.862 126.658 149.557  0.00  0.00     0.209 HD
ENDBRANCH  47  48
ENDBRANCH  17  47
TORSDOF 12
ENDMDL
MODEL 2
REMARK VINA RESULT:      -7.8     13.312     16.598
REMARK  12 active torsions:
REMARK  status: ('A' for Active; 'I' for Inactive)
REMARK    1  A    between atoms: N_8  and  C_9 
REMARK    2  A    between atoms: C_9  and  O_10 
REMARK    3  A    between atoms: O_10  and  C_11 
REMARK       I    between atoms: C_11  and  N_12 
REMARK    4  A    between atoms: N_12  and  O_13 
REMARK    5  A    between atoms: C_15  and  N_16 
REMARK    6  A    between atoms: C_23  and  O_24 
REMARK    7  A    between atoms: O_24  and  S_25 
REMARK    8  A    between atoms: S_25  and  O_26 
REMARK    9  A    between atoms: C_31  and  C_32 
REMARK   10  A    between atoms: C_32  and  O_33 
REMARK   11  A    between atoms: C_39  and  O_40 
REMARK   12  A    between atoms: C_39  and  O_41 
ROOT
ATOM      1  N           0     130.490 132.746 136.658  0.00  0.00    -0.235 N 
ATOM      2  H           0     130.773 132.252 137.442  0.00  0.00     0.174 HD
ATOM      3  H           0     129.849 133.470 136.744  0.00  0.00     0.174 HD
ATOM      4  C           0     130.975 132.441 135.485  0.00  0.00     0.672 C 
ATOM      5  N           0     131.905 131.417 135.280  0.00  0.00    -0.211 N 
ATOM      6  C           0     132.637 131.444 134.005  0.00  0.00     0.221 C 
ATOM      7  C           0     131.634 131.444 132.854  0.00  0.00     0.192 A 
ATOM      8  N           0     130.958 130.143 132.856  0.00  0.00    -0.185 N 
ATOM      9  C           0     129.605 130.305 132.980  0.00  0.00     0.674 A 
ATOM     10  C           0     130.506 132.440 133.021  0.00  0.00     0.221 A 
ATOM     11  N           0     129.284 131.627 133.070  0.00  0.00    -0.191 N 
ATOM     12  N           0     130.691 133.112 134.311  0.00  0.00    -0.180 N 
ATOM     13  C           0     130.544 134.552 134.113  0.00  0.00     0.190 C 
ATOM     14  C           0     130.703 134.843 132.617  0.00  0.00     0.161 C 
ATOM     15  C           0     132.017 135.444 132.135  0.00  0.00     0.075 C 
ATOM     16  C           0     133.175 135.161 133.091  0.00  0.00     0.129 C 
ATOM     17  C           0     134.519 135.489 132.423  0.00  0.00     0.061 C 
ATOM     18  C           0     134.817 134.254 131.555  0.00  0.00     0.210 C 
ATOM     19  O           0     133.733 133.334 131.805  0.00  0.00    -0.274 OA
ATOM     20  N           0     133.256 133.684 133.095  0.00  0.00    -0.219 N 
ATOM     21  C           0     132.999 132.901 134.149  0.00  0.00     0.269 C 
ATOM     22  O           0     133.131 133.387 135.258  0.00  0.00    -0.269 OA
ATOM     23  C           0     130.431 133.508 131.923  0.00  0.00     0.244 C 
ATOM     24  H           0     132.056 130.721 135.956  0.00  0.00     0.178 HD
ATOM     25  H           0     128.385 131.987 133.157  0.00  0.00     0.180 HD
ENDROOT
BRANCH   8  26
ATOM     26  C           0     131.638 128.844 132.738  0.00  0.00     0.325 C 
BRANCH  26  27
ATOM     27  O           0     130.900 127.993 131.823  0.00  0.00    -0.282 OA
BRANCH  27  28
ATOM     28  C           0     130.757 126.681 132.091  0.00  0.00     0.386 C 
ATOM     29  N           0     131.577 126.080 132.977  0.00  0.00    -0.213 N 
ATOM     30  H           0     132.271 126.593 133.420  0.00  0.00     0.199 HD
ATOM     31  O           0     129.888 126.038 131.535  0.00  0.00    -0.236 OA
BRANCH  29  32
ATOM     32  O           0     131.426 124.701 133.258  0.00  0.00    -0.285 OA
ATOM     33  H           0     131.641 124.225 132.443  0.00  0.00     0.244 HD
ENDBRANCH  29  32
ENDBRANCH  27  28
ENDBRANCH  26  27
ENDBRANCH   8  26
BRANCH   9  34
ATOM     34  N           0     128.739 129.323 133.008  0.00  0.00    -0.235 N 
ATOM     35  H           0     128.342 129.004 132.183  0.00  0.00     0.174 HD
ATOM     36  H           0     128.496 128.917 133.854  0.00  0.00     0.174 HD
ENDBRANCH   9  34
BRANCH  23  37
ATOM     37  O           0     131.353 133.242 130.875  0.00  0.00    -0.360 OA
ATOM     38  H           0     132.229 133.196 131.279  0.00  0.00     0.213 HD
ENDBRANCH  23  37
BRANCH  23  39
ATOM     39  O           0     129.098 133.523 131.383  0.00  0.00    -0.360 OA
ATOM     40  H           0     128.500 133.303 132.108  0.00  0.00     0.213 HD
ENDBRANCH  23  39
BRANCH  14  41
ATOM     41  O           0     129.647 135.746 132.244  0.00  0.00    -0.245 OA
BRANCH  41  42
ATOM     42  S           0     130.204 137.156 132.390  0.00  0.00     0.241 S 
ATOM     43  O           0     131.085 137.456 131.250  0.00  0.00    -0.579 OA
ATOM     44  O           0     129.094 138.121 132.418  0.00  0.00    -0.579 OA
BRANCH  42  45
ATOM     45  O           0     130.997 137.257 133.685  0.00  0.00    -0.274 OA
ATOM     46  H           0     131.041 136.367 134.057  0.00  0.00     0.234 HD
ENDBRANCH  42  45
ENDBRANCH  41  42
ENDBRANCH  14  41
BRANCH  17  47
ATOM     47  C           0     134.440 136.752 131.572  0.00  0.00     0.173 C 
BRANCH  47  48
ATOM     48  O           0     133.913 137.822 132.357  0.00  0.00    -0.400 OA
ATOM     49  H           0     133.661 138.524 131.741  0.00  0.00     0.209 HD
ENDBRANCH  47  48
ENDBRANCH  17  47
TORSDOF 12
ENDMDL
MODEL 3
REMARK VINA RESULT:      -7.5     13.200     15.217
REMARK  12 active torsions:
REMARK  status: ('A' for Active; 'I' for Inactive)
REMARK    1  A    between atoms: N_8  and  C_9 
REMARK    2  A    between atoms: C_9  and  O_10 
REMARK    3  A    between atoms: O_10  and  C_11 
REMARK       I    between atoms: C_11  and  N_12 
REMARK    4  A    between atoms: N_12  and  O_13 
REMARK    5  A    between atoms: C_15  and  N_16 
REMARK    6  A    between atoms: C_23  and  O_24 
REMARK    7  A    between atoms: O_24  and  S_25 
REMARK    8  A    between atoms: S_25  and  O_26 
REMARK    9  A    between atoms: C_31  and  C_32 
REMARK   10  A    between atoms: C_32  and  O_33 
REMARK   11  A    between atoms: C_39  and  O_40 
REMARK   12  A    between atoms: C_39  and  O_41 
ROOT
ATOM      1  N           0     132.735 135.633 136.511  0.00  0.00    -0.235 N 
ATOM      2  H           0     132.170 136.064 137.170  0.00  0.00     0.174 HD
ATOM      3  H           0     133.643 135.379 136.741  0.00  0.00     0.174 HD
ATOM      4  C           0     132.274 135.391 135.314  0.00  0.00     0.672 C 
ATOM      5  N           0     130.978 135.721 134.908  0.00  0.00    -0.211 N 
ATOM      6  C           0     130.482 135.055 133.695  0.00  0.00     0.221 C 
ATOM      7  C           0     131.448 135.328 132.546  0.00  0.00     0.192 A 
ATOM      8  N           0     131.370 136.757 132.231  0.00  0.00    -0.185 N 
ATOM      9  C           0     132.600 137.344 132.348  0.00  0.00     0.674 A 
ATOM     10  C           0     132.905 135.114 132.902  0.00  0.00     0.221 A 
ATOM     11  N           0     133.536 136.429 132.728  0.00  0.00    -0.191 N 
ATOM     12  N           0     132.967 134.732 134.316  0.00  0.00    -0.180 N 
ATOM     13  C           0     133.840 133.568 134.447  0.00  0.00     0.190 C 
ATOM     14  C           0     133.990 132.930 133.063  0.00  0.00     0.161 C 
ATOM     15  C           0     133.213 131.654 132.770  0.00  0.00     0.075 C 
ATOM     16  C           0     131.988 131.495 133.669  0.00  0.00     0.129 C 
ATOM     17  C           0     131.064 130.390 133.133  0.00  0.00     0.061 C 
ATOM     18  C           0     130.265 131.081 132.015  0.00  0.00     0.210 C 
ATOM     19  O           0     130.704 132.456 132.017  0.00  0.00    -0.274 OA
ATOM     20  N           0     131.171 132.681 133.338  0.00  0.00    -0.219 N 
ATOM     21  C           0     130.896 133.687 134.178  0.00  0.00     0.269 C 
ATOM     22  O           0     130.926 133.448 135.372  0.00  0.00    -0.269 OA
ATOM     23  C           0     133.612 134.034 132.075  0.00  0.00     0.244 C 
ATOM     24  H           0     130.432 136.364 135.412  0.00  0.00     0.178 HD
ATOM     25  H           0     134.481 136.610 132.869  0.00  0.00     0.180 HD
ENDROOT
BRANCH   8  26
ATOM     26  C           0     130.139 137.463 131.839  0.00  0.00     0.325 C 
BRANCH  26  27
ATOM     27  O           0     129.979 138.649 132.661  0.00  0.00    -0.282 OA
BRANCH  27  28
ATOM     28  C           0     129.428 139.761 132.138  0.00  0.00     0.386 C 
ATOM     29  N           0     130.214 140.779 131.737  0.00  0.00    -0.213 N 
ATOM     30  H           0     131.178 140.711 131.826  0.00  0.00     0.199 HD
ATOM     31  O           0     128.220 139.846 132.026  0.00  0.00    -0.236 OA
BRANCH  29  32
ATOM     32  O           0     129.634 141.947 131.187  0.00  0.00    -0.285 OA
ATOM     33  H           0     129.986 142.696 131.689  0.00  0.00     0.244 HD
ENDBRANCH  29  32
ENDBRANCH  27  28
ENDBRANCH  26  27
ENDBRANCH   8  26
BRANCH   9  34
ATOM     34  N           0     132.842 138.612 132.127  0.00  0.00    -0.235 N 
ATOM     35  H           0     132.115 139.211 131.896  0.00  0.00     0.174 HD
ATOM     36  H           0     133.748 138.950 132.194  0.00  0.00     0.174 HD
ENDBRANCH   9  34
BRANCH  23  37
ATOM     37  O           0     132.785 133.560 131.022  0.00  0.00    -0.360 OA
ATOM     38  H           0     132.059 133.073 131.434  0.00  0.00     0.213 HD
ENDBRANCH  23  37
BRANCH  23  39
ATOM     39  O           0     134.812 134.593 131.514  0.00  0.00    -0.360 OA
ATOM     40  H           0     135.029 134.065 130.734  0.00  0.00     0.213 HD
ENDBRANCH  23  39
BRANCH  14  41
ATOM     41  O           0     135.387 132.643 132.875  0.00  0.00    -0.245 OA
BRANCH  41  42
ATOM     42  S           0     135.483 131.184 132.454  0.00  0.00     0.241 S 
ATOM     43  O           0     135.084 130.321 133.577  0.00  0.00    -0.579 OA
ATOM     44  O           0     134.590 130.943 131.310  0.00  0.00    -0.579 OA
BRANCH  42  45
ATOM     45  O           0     136.917 130.865 132.053  0.00  0.00    -0.274 OA
ATOM     46  H           0     137.119 129.989 132.408  0.00  0.00     0.234 HD
ENDBRANCH  42  45
ENDBRANCH  41  42
ENDBRANCH  14  41
BRANCH  17  47
ATOM     47  C           0     131.851 129.202 132.590  0.00  0.00     0.173 C 
BRANCH  47  48
ATOM     48  O           0     131.969 128.206 133.606  0.00  0.00    -0.400 OA
ATOM     49  H           0     132.743 127.670 133.385  0.00  0.00     0.209 HD
ENDBRANCH  47  48
ENDBRANCH  17  47
TORSDOF 12
ENDMDL
MODEL 4
REMARK VINA RESULT:      -7.5      2.777      6.656
REMARK  12 active torsions:
REMARK  status: ('A' for Active; 'I' for Inactive)
REMARK    1  A    between atoms: N_8  and  C_9 
REMARK    2  A    between atoms: C_9  and  O_10 
REMARK    3  A    between atoms: O_10  and  C_11 
REMARK       I    between atoms: C_11  and  N_12 
REMARK    4  A    between atoms: N_12  and  O_13 
REMARK    5  A    between atoms: C_15  and  N_16 
REMARK    6  A    between atoms: C_23  and  O_24 
REMARK    7  A    between atoms: O_24  and  S_25 
REMARK    8  A    between atoms: S_25  and  O_26 
REMARK    9  A    between atoms: C_31  and  C_32 
REMARK   10  A    between atoms: C_32  and  O_33 
REMARK   11  A    between atoms: C_39  and  O_40 
REMARK   12  A    between atoms: C_39  and  O_41 
ROOT
ATOM      1  N           0     139.258 130.010 149.304  0.00  0.00    -0.235 N 
ATOM      2  H           0     139.854 129.254 149.189  0.00  0.00     0.174 HD
ATOM      3  H           0     139.531 130.765 149.849  0.00  0.00     0.174 HD
ATOM      4  C           0     138.091 130.015 148.721  0.00  0.00     0.672 C 
ATOM      5  N           0     137.628 128.969 147.916  0.00  0.00    -0.211 N 
ATOM      6  C           0     136.493 129.275 147.034  0.00  0.00     0.221 C 
ATOM      7  C           0     135.336 129.805 147.876  0.00  0.00     0.192 A 
ATOM      8  N           0     134.856 128.701 148.713  0.00  0.00    -0.185 N 
ATOM      9  C           0     134.924 129.037 150.037  0.00  0.00     0.674 A 
ATOM     10  C           0     135.737 130.870 148.875  0.00  0.00     0.221 A 
ATOM     11  N           0     135.422 130.297 150.190  0.00  0.00    -0.191 N 
ATOM     12  N           0     137.187 131.060 148.765  0.00  0.00    -0.180 N 
ATOM     13  C           0     137.466 132.492 148.695  0.00  0.00     0.190 C 
ATOM     14  C           0     136.168 133.209 148.313  0.00  0.00     0.161 C 
ATOM     15  C           0     136.012 133.705 146.882  0.00  0.00     0.075 C 
ATOM     16  C           0     136.904 132.947 145.899  0.00  0.00     0.129 C 
ATOM     17  C           0     136.485 133.242 144.451  0.00  0.00     0.061 C 
ATOM     18  C           0     135.282 132.314 144.213  0.00  0.00     0.210 C 
ATOM     19  O           0     135.131 131.554 145.432  0.00  0.00    -0.274 OA
ATOM     20  N           0     136.425 131.554 146.015  0.00  0.00    -0.219 N 
ATOM     21  C           0     137.138 130.531 146.504  0.00  0.00     0.269 C 
ATOM     22  O           0     138.352 130.614 146.447  0.00  0.00    -0.269 OA
ATOM     23  C           0     135.052 132.226 148.670  0.00  0.00     0.244 C 
ATOM     24  H           0     138.046 128.081 147.944  0.00  0.00     0.178 HD
ATOM     25  H           0     135.557 130.754 151.037  0.00  0.00     0.180 HD
ENDROOT
BRANCH   8  26
ATOM     26  C           0     134.366 127.412 148.201  0.00  0.00     0.325 C 
BRANCH  26  27
ATOM     27  O           0     133.333 127.647 147.208  0.00  0.00    -0.282 OA
BRANCH  27  28
ATOM     28  C           0     132.101 127.134 147.384  0.00  0.00     0.386 C 
ATOM     29  N           0     131.918 125.798 147.374  0.00  0.00    -0.213 N 
ATOM     30  H           0     132.675 125.207 147.240  0.00  0.00     0.199 HD
ATOM     31  O           0     131.152 127.875 147.551  0.00  0.00    -0.236 OA
BRANCH  29  32
ATOM     32  O           0     130.623 125.259 147.559  0.00  0.00    -0.285 OA
ATOM     33  H           0     130.572 124.962 148.478  0.00  0.00     0.244 HD
ENDBRANCH  29  32
ENDBRANCH  27  28
ENDBRANCH  26  27
ENDBRANCH   8  26
BRANCH   9  34
ATOM     34  N           0     134.561 128.254 151.022  0.00  0.00    -0.235 N 
ATOM     35  H           0     134.711 128.529 151.940  0.00  0.00     0.174 HD
ATOM     36  H           0     134.143 127.400 150.833  0.00  0.00     0.174 HD
ENDBRANCH   9  34
BRANCH  23  37
ATOM     37  O           0     134.048 132.156 147.668  0.00  0.00    -0.360 OA
ATOM     38  H           0     134.121 132.964 147.142  0.00  0.00     0.213 HD
ENDBRANCH  23  37
BRANCH  23  39
ATOM     39  O           0     134.449 132.632 149.911  0.00  0.00    -0.360 OA
ATOM     40  H           0     134.722 133.545 150.070  0.00  0.00     0.213 HD
ENDBRANCH  23  39
BRANCH  14  41
ATOM     41  O           0     136.037 134.346 149.185  0.00  0.00    -0.245 OA
BRANCH  41  42
ATOM     42  S           0     137.419 134.972 149.302  0.00  0.00     0.241 S 
ATOM     43  O           0     137.879 134.890 150.697  0.00  0.00    -0.579 OA
ATOM     44  O           0     138.361 134.248 148.433  0.00  0.00    -0.579 OA
BRANCH  42  45
ATOM     45  O           0     137.354 136.431 148.873  0.00  0.00    -0.274 OA
ATOM     46  H           0     137.754 136.950 149.583  0.00  0.00     0.234 HD
ENDBRANCH  42  45
ENDBRANCH  41  42
ENDBRANCH  14  41
BRANCH  17  47
ATOM     47  C           0     136.096 134.704 144.256  0.00  0.00     0.173 C 
BRANCH  47  48
ATOM     48  O           0     135.832 134.946 142.874  0.00  0.00    -0.400 OA
ATOM     49  H           0     134.870 134.967 142.772  0.00  0.00     0.209 HD
ENDBRANCH  47  48
ENDBRANCH  17  47
TORSDOF 12
ENDMDL
MODEL 5
REMARK VINA RESULT:      -7.4      2.108      3.336
REMARK  12 active torsions:
REMARK  status: ('A' for Active; 'I' for Inactive)
REMARK    1  A    between atoms: N_8  and  C_9 
REMARK    2  A    between atoms: C_9  and  O_10 
REMARK    3  A    between atoms: O_10  and  C_11 
REMARK       I    between atoms: C_11  and  N_12 
REMARK    4  A    between atoms: N_12  and  O_13 
REMARK    5  A    between atoms: C_15  and  N_16 
REMARK    6  A    between atoms: C_23  and  O_24 
REMARK    7  A    between atoms: O_24  and  S_25 
REMARK    8  A    between atoms: S_25  and  O_26 
REMARK    9  A    between atoms: C_31  and  C_32 
REMARK   10  A    between atoms: C_32  and  O_33 
REMARK   11  A    between atoms: C_39  and  O_40 
REMARK   12  A    between atoms: C_39  and  O_41 
ROOT
ATOM      1  N           0     140.092 130.193 146.576  0.00  0.00    -0.235 N 
ATOM      2  H           0     140.978 130.579 146.661  0.00  0.00     0.174 HD
ATOM      3  H           0     139.988 129.232 146.490  0.00  0.00     0.174 HD
ATOM      4  C           0     139.041 130.965 146.582  0.00  0.00     0.672 C 
ATOM      5  N           0     139.108 132.356 146.707  0.00  0.00    -0.211 N 
ATOM      6  C           0     137.863 133.041 147.083  0.00  0.00     0.221 C 
ATOM      7  C           0     136.774 132.684 146.074  0.00  0.00     0.192 A 
ATOM      8  N           0     137.146 133.287 144.790  0.00  0.00    -0.185 N 
ATOM      9  C           0     137.244 132.328 143.819  0.00  0.00     0.674 A 
ATOM     10  C           0     136.681 131.205 145.767  0.00  0.00     0.221 A 
ATOM     11  N           0     136.973 131.094 144.331  0.00  0.00    -0.191 N 
ATOM     12  N           0     137.732 130.523 146.528  0.00  0.00    -0.180 N 
ATOM     13  C           0     137.148 129.363 147.196  0.00  0.00     0.190 C 
ATOM     14  C           0     135.628 129.547 147.223  0.00  0.00     0.161 C 
ATOM     15  C           0     134.976 129.968 148.533  0.00  0.00     0.075 C 
ATOM     16  C           0     135.952 130.678 149.471  0.00  0.00     0.129 C 
ATOM     17  C           0     135.195 131.367 150.617  0.00  0.00     0.061 C 
ATOM     18  C           0     134.695 132.683 149.997  0.00  0.00     0.210 C 
ATOM     19  O           0     135.208 132.695 148.647  0.00  0.00    -0.274 OA
ATOM     20  N           0     136.360 131.868 148.695  0.00  0.00    -0.219 N 
ATOM     21  C           0     137.593 132.099 148.229  0.00  0.00     0.269 C 
ATOM     22  O           0     138.523 131.568 148.810  0.00  0.00    -0.269 OA
ATOM     23  C           0     135.332 130.564 146.120  0.00  0.00     0.244 C 
ATOM     24  H           0     139.947 132.843 146.553  0.00  0.00     0.178 HD
ATOM     25  H           0     136.974 130.260 143.832  0.00  0.00     0.180 HD
ENDROOT
BRANCH   8  26
ATOM     26  C           0     137.378 134.724 144.574  0.00  0.00     0.325 C 
BRANCH  26  27
ATOM     27  O           0     136.755 135.133 143.328  0.00  0.00    -0.282 OA
BRANCH  27  28
ATOM     28  C           0     135.413 135.192 143.234  0.00  0.00     0.386 C 
ATOM     29  N           0     134.781 134.583 142.211  0.00  0.00    -0.213 N 
ATOM     30  H           0     135.293 134.102 141.542  0.00  0.00     0.199 HD
ATOM     31  O           0     134.771 135.795 144.072  0.00  0.00    -0.236 OA
BRANCH  29  32
ATOM     32  O           0     133.370 134.646 142.112  0.00  0.00    -0.285 OA
ATOM     33  H           0     133.031 133.788 142.406  0.00  0.00     0.244 HD
ENDBRANCH  29  32
ENDBRANCH  27  28
ENDBRANCH  26  27
ENDBRANCH   8  26
BRANCH   9  34
ATOM     34  N           0     137.557 132.565 142.570  0.00  0.00    -0.235 N 
ATOM     35  H           0     137.164 132.031 141.863  0.00  0.00     0.174 HD
ATOM     36  H           0     138.183 133.274 142.354  0.00  0.00     0.174 HD
ENDBRANCH   9  34
BRANCH  23  37
ATOM     37  O           0     134.382 131.541 146.521  0.00  0.00    -0.360 OA
ATOM     38  H           0     134.809 132.086 147.195  0.00  0.00     0.213 HD
ENDBRANCH  23  37
BRANCH  23  39
ATOM     39  O           0     134.833 129.871 144.963  0.00  0.00    -0.360 OA
ATOM     40  H           0     135.569 129.357 144.605  0.00  0.00     0.213 HD
ENDBRANCH  23  39
BRANCH  14  41
ATOM     41  O           0     135.040 128.296 146.825  0.00  0.00    -0.245 OA
BRANCH  41  42
ATOM     42  S           0     133.974 127.963 147.859  0.00  0.00     0.241 S 
ATOM     43  O           0     133.119 126.878 147.352  0.00  0.00    -0.579 OA
ATOM     44  O           0     134.621 127.533 149.109  0.00  0.00    -0.579 OA
BRANCH  42  45
ATOM     45  O           0     133.124 129.196 148.128  0.00  0.00    -0.274 OA
ATOM     46  H           0     132.998 129.640 147.279  0.00  0.00     0.234 HD
ENDBRANCH  42  45
ENDBRANCH  41  42
ENDBRANCH  14  41
BRANCH  17  47
ATOM     47  C           0     134.030 130.521 151.121  0.00  0.00     0.173 C 
BRANCH  47  48
ATOM     48  O           0     132.800 131.085 150.666  0.00  0.00    -0.400 OA
ATOM     49  H           0     132.962 132.028 150.519  0.00  0.00     0.209 HD
ENDBRANCH  47  48
ENDBRANCH  17  47
TORSDOF 12
ENDMDL
MODEL 6
REMARK VINA RESULT:      -7.3      2.673      7.059
REMARK  12 active torsions:
REMARK  status: ('A' for Active; 'I' for Inactive)
REMARK    1  A    between atoms: N_8  and  C_9 
REMARK    2  A    between atoms: C_9  and  O_10 
REMARK    3  A    between atoms: O_10  and  C_11 
REMARK       I    between atoms: C_11  and  N_12 
REMARK    4  A    between atoms: N_12  and  O_13 
REMARK    5  A    between atoms: C_15  and  N_16 
REMARK    6  A    between atoms: C_23  and  O_24 
REMARK    7  A    between atoms: O_24  and  S_25 
REMARK    8  A    between atoms: S_25  and  O_26 
REMARK    9  A    between atoms: C_31  and  C_32 
REMARK   10  A    between atoms: C_32  and  O_33 
REMARK   11  A    between atoms: C_39  and  O_40 
REMARK   12  A    between atoms: C_39  and  O_41 
ROOT
ATOM      1  N           0     135.370 133.475 149.939  0.00  0.00    -0.235 N 
ATOM      2  H           0     135.666 133.819 150.796  0.00  0.00     0.174 HD
ATOM      3  H           0     134.507 133.736 149.582  0.00  0.00     0.174 HD
ATOM      4  C           0     136.137 132.665 149.261  0.00  0.00     0.672 C 
ATOM      5  N           0     137.396 132.246 149.704  0.00  0.00    -0.211 N 
ATOM      6  C           0     138.286 131.664 148.690  0.00  0.00     0.221 C 
ATOM      7  C           0     137.578 130.489 148.020  0.00  0.00     0.192 A 
ATOM      8  N           0     137.431 129.430 149.024  0.00  0.00    -0.185 N 
ATOM      9  C           0     136.114 129.099 149.185  0.00  0.00     0.674 A 
ATOM     10  C           0     136.155 130.787 147.597  0.00  0.00     0.221 A 
ATOM     11  N           0     135.324 129.853 148.369  0.00  0.00    -0.191 N 
ATOM     12  N           0     135.847 132.161 148.007  0.00  0.00    -0.180 N 
ATOM     13  C           0     135.225 132.856 146.883  0.00  0.00     0.190 C 
ATOM     14  C           0     135.536 132.066 145.608  0.00  0.00     0.161 C 
ATOM     15  C           0     136.606 132.605 144.668  0.00  0.00     0.075 C 
ATOM     16  C           0     137.595 133.531 145.377  0.00  0.00     0.129 C 
ATOM     17  C           0     138.825 133.785 144.492  0.00  0.00     0.061 C 
ATOM     18  C           0     139.702 132.540 144.705  0.00  0.00     0.210 C 
ATOM     19  O           0     139.000 131.731 145.673  0.00  0.00    -0.274 OA
ATOM     20  N           0     138.204 132.654 146.399  0.00  0.00    -0.219 N 
ATOM     21  C           0     138.062 132.799 147.722  0.00  0.00     0.269 C 
ATOM     22  O           0     137.805 133.913 148.143  0.00  0.00    -0.269 OA
ATOM     23  C           0     135.898 130.661 146.091  0.00  0.00     0.244 C 
ATOM     24  H           0     137.664 132.341 150.644  0.00  0.00     0.178 HD
ATOM     25  H           0     134.356 129.793 148.303  0.00  0.00     0.180 HD
ENDROOT
BRANCH   8  26
ATOM     26  C           0     138.546 128.807 149.755  0.00  0.00     0.325 C 
BRANCH  26  27
ATOM     27  O           0     138.722 127.441 149.297  0.00  0.00    -0.282 OA
BRANCH  27  28
ATOM     28  C           0     139.712 127.142 148.435  0.00  0.00     0.386 C 
ATOM     29  N           0     139.617 126.050 147.651  0.00  0.00    -0.213 N 
ATOM     30  H           0     138.835 125.479 147.708  0.00  0.00     0.199 HD
ATOM     31  O           0     140.693 127.857 148.364  0.00  0.00    -0.236 OA
BRANCH  29  32
ATOM     32  O           0     140.659 125.736 146.745  0.00  0.00    -0.285 OA
ATOM     33  H           0     140.722 126.476 146.125  0.00  0.00     0.244 HD
ENDBRANCH  29  32
ENDBRANCH  27  28
ENDBRANCH  26  27
ENDBRANCH   8  26
BRANCH   9  34
ATOM     34  N           0     135.673 128.183 150.010  0.00  0.00    -0.235 N 
ATOM     35  H           0     135.279 128.444 150.857  0.00  0.00     0.174 HD
ATOM     36  H           0     135.742 127.245 149.774  0.00  0.00     0.174 HD
ENDBRANCH   9  34
BRANCH  23  37
ATOM     37  O           0     137.027 130.127 145.414  0.00  0.00    -0.360 OA
ATOM     38  H           0     137.666 130.846 145.327  0.00  0.00     0.213 HD
ENDBRANCH  23  37
BRANCH  23  39
ATOM     39  O           0     134.772 129.790 145.885  0.00  0.00    -0.360 OA
ATOM     40  H           0     134.271 129.780 146.712  0.00  0.00     0.213 HD
ENDBRANCH  23  39
BRANCH  14  41
ATOM     41  O           0     134.311 131.963 144.861  0.00  0.00    -0.245 OA
BRANCH  41  42
ATOM     42  S           0     134.693 131.973 143.388  0.00  0.00     0.241 S 
ATOM     43  O           0     134.876 133.362 142.937  0.00  0.00    -0.579 OA
ATOM     44  O           0     135.947 131.227 143.200  0.00  0.00    -0.579 OA
BRANCH  42  45
ATOM     45  O           0     133.587 131.317 142.573  0.00  0.00    -0.274 OA
ATOM     46  H           0     133.460 130.430 142.935  0.00  0.00     0.234 HD
ENDBRANCH  42  45
ENDBRANCH  41  42
ENDBRANCH  14  41
BRANCH  17  47
ATOM     47  C           0     138.448 133.947 143.024  0.00  0.00     0.173 C 
BRANCH  47  48
ATOM     48  O           0     138.461 135.333 142.679  0.00  0.00    -0.400 OA
ATOM     49  H           0     139.217 135.728 143.135  0.00  0.00     0.209 HD
ENDBRANCH  47  48
ENDBRANCH  17  47
TORSDOF 12
ENDMDL
MODEL 7
REMARK VINA RESULT:      -7.1      2.870      4.451
REMARK  12 active torsions:
REMARK  status: ('A' for Active; 'I' for Inactive)
REMARK    1  A    between atoms: N_8  and  C_9 
REMARK    2  A    between atoms: C_9  and  O_10 
REMARK    3  A    between atoms: O_10  and  C_11 
REMARK       I    between atoms: C_11  and  N_12 
REMARK    4  A    between atoms: N_12  and  O_13 
REMARK    5  A    between atoms: C_15  and  N_16 
REMARK    6  A    between atoms: C_23  and  O_24 
REMARK    7  A    between atoms: O_24  and  S_25 
REMARK    8  A    between atoms: S_25  and  O_26 
REMARK    9  A    between atoms: C_31  and  C_32 
REMARK   10  A    between atoms: C_32  and  O_33 
REMARK   11  A    between atoms: C_39  and  O_40 
REMARK   12  A    between atoms: C_39  and  O_41 
ROOT
ATOM      1  N           0     138.431 129.207 150.805  0.00  0.00    -0.235 N 
ATOM      2  H           0     139.077 129.655 151.372  0.00  0.00     0.174 HD
ATOM      3  H           0     138.317 128.246 150.864  0.00  0.00     0.174 HD
ATOM      4  C           0     137.710 129.899 149.965  0.00  0.00     0.672 C 
ATOM      5  N           0     137.811 131.286 149.825  0.00  0.00    -0.211 N 
ATOM      6  C           0     136.695 131.958 149.143  0.00  0.00     0.221 C 
ATOM      7  C           0     136.503 131.332 147.765  0.00  0.00     0.192 A 
ATOM      8  N           0     137.679 131.671 146.957  0.00  0.00    -0.185 N 
ATOM      9  C           0     138.296 130.537 146.506  0.00  0.00     0.674 A 
ATOM     10  C           0     136.493 129.818 147.773  0.00  0.00     0.221 A 
ATOM     11  N           0     137.641 129.424 146.944  0.00  0.00    -0.191 N 
ATOM     12  N           0     136.721 129.377 149.153  0.00  0.00    -0.180 N 
ATOM     13  C           0     135.736 128.350 149.484  0.00  0.00     0.190 C 
ATOM     14  C           0     134.594 128.444 148.467  0.00  0.00     0.161 C 
ATOM     15  C           0     133.288 129.092 148.907  0.00  0.00     0.075 C 
ATOM     16  C           0     133.476 130.041 150.091  0.00  0.00     0.129 C 
ATOM     17  C           0     132.223 130.910 150.289  0.00  0.00     0.061 C 
ATOM     18  C           0     132.378 132.032 149.250  0.00  0.00     0.210 C 
ATOM     19  O           0     133.646 131.791 148.603  0.00  0.00    -0.274 OA
ATOM     20  N           0     134.402 131.063 149.559  0.00  0.00    -0.219 N 
ATOM     21  C           0     135.654 131.265 149.986  0.00  0.00     0.269 C 
ATOM     22  O           0     135.922 130.926 151.125  0.00  0.00    -0.269 OA
ATOM     23  C           0     135.189 129.186 147.269  0.00  0.00     0.244 C 
ATOM     24  H           0     138.588 131.779 150.168  0.00  0.00     0.178 HD
ATOM     25  H           0     137.889 128.506 146.746  0.00  0.00     0.180 HD
ENDROOT
BRANCH   8  26
ATOM     26  C           0     138.130 133.041 146.668  0.00  0.00     0.325 C 
BRANCH  26  27
ATOM     27  O           0     137.379 133.571 145.544  0.00  0.00    -0.282 OA
BRANCH  27  28
ATOM     28  C           0     137.943 133.624 144.323  0.00  0.00     0.386 C 
ATOM     29  N           0     137.538 134.551 143.432  0.00  0.00    -0.213 N 
ATOM     30  H           0     136.840 135.180 143.671  0.00  0.00     0.199 HD
ATOM     31  O           0     138.818 132.835 144.022  0.00  0.00    -0.236 OA
BRANCH  29  32
ATOM     32  O           0     138.131 134.606 142.148  0.00  0.00    -0.285 OA
ATOM     33  H           0     139.086 134.512 142.277  0.00  0.00     0.244 HD
ENDBRANCH  29  32
ENDBRANCH  27  28
ENDBRANCH  26  27
ENDBRANCH   8  26
BRANCH   9  34
ATOM     34  N           0     139.370 130.523 145.756  0.00  0.00    -0.235 N 
ATOM     35  H           0     139.704 131.349 145.375  0.00  0.00     0.174 HD
ATOM     36  H           0     139.829 129.687 145.584  0.00  0.00     0.174 HD
ENDBRANCH   9  34
BRANCH  23  37
ATOM     37  O           0     134.306 130.166 146.743  0.00  0.00    -0.360 OA
ATOM     38  H           0     134.781 130.616 146.032  0.00  0.00     0.213 HD
ENDBRANCH  23  37
BRANCH  23  39
ATOM     39  O           0     135.504 128.235 146.238  0.00  0.00    -0.360 OA
ATOM     40  H           0     135.584 128.732 145.413  0.00  0.00     0.213 HD
ENDBRANCH  23  39
BRANCH  14  41
ATOM     41  O           0     134.294 127.104 148.039  0.00  0.00    -0.245 OA
BRANCH  41  42
ATOM     42  S           0     132.822 127.086 147.653  0.00  0.00     0.241 S 
ATOM     43  O           0     131.999 127.364 148.840  0.00  0.00    -0.579 OA
ATOM     44  O           0     132.569 128.113 146.630  0.00  0.00    -0.579 OA
BRANCH  42  45
ATOM     45  O           0     132.460 125.716 147.095  0.00  0.00    -0.274 OA
ATOM     46  H           0     132.991 125.589 146.298  0.00  0.00     0.234 HD
ENDBRANCH  42  45
ENDBRANCH  41  42
ENDBRANCH  14  41
BRANCH  17  47
ATOM     47  C           0     130.939 130.120 150.058  0.00  0.00     0.173 C 
BRANCH  47  48
ATOM     48  O           0     130.238 130.670 148.942  0.00  0.00    -0.400 OA
ATOM     49  H           0     130.480 130.140 148.170  0.00  0.00     0.209 HD
ENDBRANCH  47  48
ENDBRANCH  17  47
TORSDOF 12
ENDMDL
MODEL 8
REMARK VINA RESULT:      -7.1      3.028      6.105
REMARK  12 active torsions:
REMARK  status: ('A' for Active; 'I' for Inactive)
REMARK    1  A    between atoms: N_8  and  C_9 
REMARK    2  A    between atoms: C_9  and  O_10 
REMARK    3  A    between atoms: O_10  and  C_11 
REMARK       I    between atoms: C_11  and  N_12 
REMARK    4  A    between atoms: N_12  and  O_13 
REMARK    5  A    between atoms: C_15  and  N_16 
REMARK    6  A    between atoms: C_23  and  O_24 
REMARK    7  A    between atoms: O_24  and  S_25 
REMARK    8  A    between atoms: S_25  and  O_26 
REMARK    9  A    between atoms: C_31  and  C_32 
REMARK   10  A    between atoms: C_32  and  O_33 
REMARK   11  A    between atoms: C_39  and  O_40 
REMARK   12  A    between atoms: C_39  and  O_41 
ROOT
ATOM      1  N           0     135.899 134.719 150.422  0.00  0.00    -0.235 N 
ATOM      2  H           0     135.914 134.963 151.360  0.00  0.00     0.174 HD
ATOM      3  H           0     135.857 135.408 149.741  0.00  0.00     0.174 HD
ATOM      4  C           0     135.940 133.461 150.076  0.00  0.00     0.672 C 
ATOM      5  N           0     136.007 132.411 150.997  0.00  0.00    -0.211 N 
ATOM      6  C           0     136.432 131.106 150.471  0.00  0.00     0.221 C 
ATOM      7  C           0     135.506 130.704 149.326  0.00  0.00     0.192 A 
ATOM      8  N           0     134.180 130.451 149.896  0.00  0.00    -0.185 N 
ATOM      9  C           0     133.243 131.257 149.311  0.00  0.00     0.674 A 
ATOM     10  C           0     135.263 131.807 148.316  0.00  0.00     0.221 A 
ATOM     11  N           0     133.817 132.063 148.373  0.00  0.00    -0.191 N 
ATOM     12  N           0     135.984 132.998 148.774  0.00  0.00    -0.180 N 
ATOM     13  C           0     136.730 133.554 147.648  0.00  0.00     0.190 C 
ATOM     14  C           0     136.844 132.468 146.574  0.00  0.00     0.161 C 
ATOM     15  C           0     138.175 131.745 146.417  0.00  0.00     0.075 C 
ATOM     16  C           0     139.022 131.799 147.688  0.00  0.00     0.129 C 
ATOM     17  C           0     140.186 130.798 147.603  0.00  0.00     0.061 C 
ATOM     18  C           0     139.547 129.450 147.980  0.00  0.00     0.210 C 
ATOM     19  O           0     138.169 129.747 148.292  0.00  0.00    -0.274 OA
ATOM     20  N           0     138.177 131.110 148.686  0.00  0.00    -0.219 N 
ATOM     21  C           0     137.628 131.688 149.761  0.00  0.00     0.269 C 
ATOM     22  O           0     138.171 132.685 150.204  0.00  0.00    -0.269 OA
ATOM     23  C           0     135.723 131.478 146.890  0.00  0.00     0.244 C 
ATOM     24  H           0     135.782 132.547 151.943  0.00  0.00     0.178 HD
ATOM     25  H           0     133.351 132.715 147.823  0.00  0.00     0.180 HD
ENDROOT
BRANCH   8  26
ATOM     26  C           0     133.895 129.464 150.949  0.00  0.00     0.325 C 
BRANCH  26  27
ATOM     27  O           0     133.557 128.190 150.340  0.00  0.00    -0.282 OA
BRANCH  27  28
ATOM     28  C           0     132.773 128.154 149.246  0.00  0.00     0.386 C 
ATOM     29  N           0     133.326 128.028 148.024  0.00  0.00    -0.213 N 
ATOM     30  H           0     134.289 127.963 147.932  0.00  0.00     0.199 HD
ATOM     31  O           0     131.565 128.236 149.361  0.00  0.00    -0.236 OA
BRANCH  29  32
ATOM     32  O           0     132.501 127.990 146.874  0.00  0.00    -0.285 OA
ATOM     33  H           0     131.608 128.226 147.163  0.00  0.00     0.244 HD
ENDBRANCH  29  32
ENDBRANCH  27  28
ENDBRANCH  26  27
ENDBRANCH   8  26
BRANCH   9  34
ATOM     34  N           0     131.968 131.255 149.612  0.00  0.00    -0.235 N 
ATOM     35  H           0     131.457 130.434 149.548  0.00  0.00     0.174 HD
ATOM     36  H           0     131.537 132.075 149.899  0.00  0.00     0.174 HD
ENDBRANCH   9  34
BRANCH  23  37
ATOM     37  O           0     136.144 130.126 146.778  0.00  0.00    -0.360 OA
ATOM     38  H           0     135.372 129.577 146.968  0.00  0.00     0.213 HD
ENDBRANCH  23  37
BRANCH  23  39
ATOM     39  O           0     134.627 131.705 145.987  0.00  0.00    -0.360 OA
ATOM     40  H           0     135.002 131.750 145.098  0.00  0.00     0.213 HD
ENDBRANCH  23  39
BRANCH  14  41
ATOM     41  O           0     136.531 133.085 145.312  0.00  0.00    -0.245 OA
BRANCH  41  42
ATOM     42  S           0     137.450 132.453 144.275  0.00  0.00     0.241 S 
ATOM     43  O           0     136.901 132.680 142.929  0.00  0.00    -0.579 OA
ATOM     44  O           0     138.787 133.061 144.369  0.00  0.00    -0.579 OA
BRANCH  42  45
ATOM     45  O           0     137.555 130.957 144.535  0.00  0.00    -0.274 OA
ATOM     46  H           0     138.103 130.588 143.829  0.00  0.00     0.234 HD
ENDBRANCH  42  45
ENDBRANCH  41  42
ENDBRANCH  14  41
BRANCH  17  47
ATOM     47  C           0     140.793 130.746 146.206  0.00  0.00     0.173 C 
BRANCH  47  48
ATOM     48  O           0     141.122 132.069 145.781  0.00  0.00    -0.400 OA
ATOM     49  H           0     140.670 132.213 144.938  0.00  0.00     0.209 HD
ENDBRANCH  47  48
ENDBRANCH  17  47
TORSDOF 12
ENDMDL
MODEL 9
REMARK VINA RESULT:      -6.4      1.982      3.916
REMARK  12 active torsions:
REMARK  status: ('A' for Active; 'I' for Inactive)
REMARK    1  A    between atoms: N_8  and  C_9 
REMARK    2  A    between atoms: C_9  and  O_10 
REMARK    3  A    between atoms: O_10  and  C_11 
REMARK       I    between atoms: C_11  and  N_12 
REMARK    4  A    between atoms: N_12  and  O_13 
REMARK    5  A    between atoms: C_15  and  N_16 
REMARK    6  A    between atoms: C_23  and  O_24 
REMARK    7  A    between atoms: O_24  and  S_25 
REMARK    8  A    between atoms: S_25  and  O_26 
REMARK    9  A    between atoms: C_31  and  C_32 
REMARK   10  A    between atoms: C_32  and  O_33 
REMARK   11  A    between atoms: C_39  and  O_40 
REMARK   12  A    between atoms: C_39  and  O_41 
ROOT
ATOM      1  N           0     139.705 129.935 146.578  0.00  0.00    -0.235 N 
ATOM      2  H           0     140.555 129.964 146.113  0.00  0.00     0.174 HD
ATOM      3  H           0     139.521 129.224 147.212  0.00  0.00     0.174 HD
ATOM      4  C           0     138.807 130.856 146.354  0.00  0.00     0.672 C 
ATOM      5  N           0     138.997 131.914 145.460  0.00  0.00    -0.211 N 
ATOM      6  C           0     138.085 133.059 145.597  0.00  0.00     0.221 C 
ATOM      7  C           0     136.646 132.565 145.485  0.00  0.00     0.192 A 
ATOM      8  N           0     136.442 132.104 144.108  0.00  0.00    -0.185 N 
ATOM      9  C           0     136.049 130.793 144.093  0.00  0.00     0.674 A 
ATOM     10  C           0     136.346 131.342 146.326  0.00  0.00     0.221 A 
ATOM     11  N           0     135.967 130.300 145.362  0.00  0.00    -0.191 N 
ATOM     12  N           0     137.588 130.949 146.998  0.00  0.00    -0.180 N 
ATOM     13  C           0     137.299 130.709 148.410  0.00  0.00     0.190 C 
ATOM     14  C           0     135.960 131.376 148.739  0.00  0.00     0.161 C 
ATOM     15  C           0     135.979 132.689 149.510  0.00  0.00     0.075 C 
ATOM     16  C           0     137.306 133.434 149.365  0.00  0.00     0.129 C 
ATOM     17  C           0     137.172 134.878 149.871  0.00  0.00     0.061 C 
ATOM     18  C           0     136.521 135.628 148.697  0.00  0.00     0.210 C 
ATOM     19  O           0     136.383 134.652 147.642  0.00  0.00    -0.274 OA
ATOM     20  N           0     137.391 133.690 147.911  0.00  0.00    -0.219 N 
ATOM     21  C           0     138.301 133.158 147.087  0.00  0.00     0.269 C 
ATOM     22  O           0     139.362 132.806 147.571  0.00  0.00    -0.269 OA
ATOM     23  C           0     135.262 131.550 147.390  0.00  0.00     0.244 C 
ATOM     24  H           0     139.706 131.888 144.780  0.00  0.00     0.178 HD
ATOM     25  H           0     135.702 129.397 145.603  0.00  0.00     0.180 HD
ENDROOT
BRANCH   8  26
ATOM     26  C           0     136.631 132.935 142.909  0.00  0.00     0.325 C 
BRANCH  26  27
ATOM     27  O           0     135.378 133.025 142.181  0.00  0.00    -0.282 OA
BRANCH  27  28
ATOM     28  C           0     134.718 134.197 142.120  0.00  0.00     0.386 C 
ATOM     29  N           0     134.083 134.556 140.987  0.00  0.00    -0.213 N 
ATOM     30  H           0     134.104 133.971 140.214  0.00  0.00     0.199 HD
ATOM     31  O           0     134.693 134.931 143.089  0.00  0.00    -0.236 OA
BRANCH  29  32
ATOM     32  O           0     133.389 135.788 140.924  0.00  0.00    -0.285 OA
ATOM     33  H           0     133.025 135.948 141.806  0.00  0.00     0.244 HD
ENDBRANCH  29  32
ENDBRANCH  27  28
ENDBRANCH  26  27
ENDBRANCH   8  26
BRANCH   9  34
ATOM     34  N           0     135.789 130.108 143.008  0.00  0.00    -0.235 N 
ATOM     35  H           0     136.284 129.296 142.819  0.00  0.00     0.174 HD
ATOM     36  H           0     135.102 130.413 142.396  0.00  0.00     0.174 HD
ENDBRANCH   9  34
BRANCH  23  37
ATOM     37  O           0     134.641 132.821 147.259  0.00  0.00    -0.360 OA
ATOM     38  H           0     135.171 133.327 146.629  0.00  0.00     0.213 HD
ENDBRANCH  23  37
BRANCH  23  39
ATOM     39  O           0     134.266 130.523 147.241  0.00  0.00    -0.360 OA
ATOM     40  H           0     134.594 129.745 147.710  0.00  0.00     0.213 HD
ENDBRANCH  23  39
BRANCH  14  41
ATOM     41  O           0     135.190 130.432 149.505  0.00  0.00    -0.245 OA
BRANCH  41  42
ATOM     42  S           0     136.185 129.488 150.165  0.00  0.00     0.241 S 
ATOM     43  O           0     135.474 128.600 151.099  0.00  0.00    -0.579 OA
ATOM     44  O           0     136.854 128.679 149.134  0.00  0.00    -0.579 OA
BRANCH  42  45
ATOM     45  O           0     137.224 130.298 150.927  0.00  0.00    -0.274 OA
ATOM     46  H           0     136.928 131.217 150.913  0.00  0.00     0.234 HD
ENDBRANCH  42  45
ENDBRANCH  41  42
ENDBRANCH  14  41
BRANCH  17  47
ATOM     47  C           0     136.308 134.965 151.125  0.00  0.00     0.173 C 
BRANCH  47  48
ATOM     48  O           0     135.247 135.896 150.907  0.00  0.00    -0.400 OA
ATOM     49  H           0     134.763 135.591 150.127  0.00  0.00     0.209 HD
ENDBRANCH  47  48
ENDBRANCH  17  47
TORSDOF 12
ENDMDL
