# created with PyMOL 2.3.4
@<TRIPOS>MOLECULE
ligand_out_0001
29 33 1                 
SMALL
USER_CHARGES
@<TRIPOS>ATOM
1	   N	132.646	133.443	140.797	N.3	1	UNK0	-0.235	
2	   N	133.482	131.655	142.086	N.pl3	1	UNK0	-0.200	
3	   N	133.778	133.888	142.812	N.3	1	UNK0	-0.211	
4	   C	133.274	133.013	141.856	C.3	1	UNK0	0.670	
5	   C	134.823	131.330	142.654	C.2	1	UNK0	0.248	
6	   C	134.832	132.058	144.035	C.3	1	UNK0	0.102	
7	   C	134.995	133.511	143.520	C.3	1	UNK0	0.119	
8	   C	136.145	133.279	142.511	C.2	1	UNK0	0.249	
9	   C	136.093	131.621	144.781	C.2	1	UNK0	0.177	
10	   C	137.397	132.933	143.332	C.3	1	UNK0	0.311	
11	   C	136.407	132.603	145.913	C.3	1	UNK0	0.134	
12	   C	136.665	134.022	145.264	C.2	1	UNK0	0.198	
13	   C	135.388	134.476	144.605	C.2	1	UNK0	0.182	
14	   C	137.630	132.118	146.694	C.2	1	UNK0	0.207	
15	   O	135.749	132.069	141.822	O.2	1	UNK0	-0.350	
16	   O	137.217	131.593	143.902	O.2	1	UNK0	-0.322	
17	   O	137.702	133.914	144.296	O.2	1	UNK0	-0.319	
18	   O	135.283	132.703	146.790	O.2	1	UNK0	-0.382	
19	   O	137.875	130.744	146.392	O.2	1	UNK0	-0.398	
20	   O	135.580	135.774	144.039	O.2	1	UNK0	-0.390	
21	   O	138.511	132.872	142.440	O.2	1	UNK0	-0.341	
22	   H	132.309	132.810	140.144	 H	1	UNK0	0.174	
23	   H	132.512	134.394	140.665	 H	1	UNK0	0.174	
24	   H	132.813	130.980	141.894	 H	1	UNK0	0.180	
25	   H	133.326	134.724	143.007	 H	1	UNK0	0.178	
26	   H	135.633	132.904	147.670	 H	1	UNK0	0.210	
27	   H	138.775	130.690	146.042	 H	1	UNK0	0.209	
28	   H	136.337	136.169	144.494	 H	1	UNK0	0.210	
29	   H	139.080	132.155	142.750	 H	1	UNK0	0.215	
@<TRIPOS>BOND
1 1 4 1
2 1 22 1
3 1 23 1
4 2 5 1
5 2 24 1
6 3 25 1
7 2 4 1
8 3 4 1
9 5 6 1
10 5 15 2
11 6 7 1
12 6 9 1
13 3 7 1
14 7 8 1
15 7 13 1
16 8 10 1
17 8 15 2
18 9 11 1
19 9 16 2
20 10 17 2
21 10 21 2
22 11 12 1
23 11 14 1
24 11 18 2
25 12 13 1
26 13 20 2
27 14 19 2
28 10 16 2
29 12 17 2
30 18 26 1
31 19 27 1
32 20 28 1
33 21 29 1
@<TRIPOS>SUBSTRUCTURE
1	UNK0	1	GROUP	1 ****	UNK
