MODEL 1
REMARK VINA RESULT:      -7.6      0.000      0.000
REMARK  5 active torsions:
REMARK  status: ('A' for Active; 'I' for Inactive)
REMARK    1  A    between atoms: C_14  and  O_15 
REMARK    2  A    between atoms: C_17  and  O_18 
REMARK    3  A    between atoms: C_17  and  C_19 
REMARK    4  A    between atoms: C_19  and  O_20 
REMARK    5  A    between atoms: C_22  and  O_23 
ROOT
ATOM      1  N           0     132.646 133.443 140.797  0.00  0.00    -0.235 N 
ATOM      2  H           0     132.309 132.810 140.144  0.00  0.00     0.174 HD
ATOM      3  H           0     132.512 134.394 140.665  0.00  0.00     0.174 HD
ATOM      4  C           0     133.274 133.013 141.856  0.00  0.00     0.670 C 
ATOM      5  N           0     133.482 131.655 142.086  0.00  0.00    -0.200 N 
ATOM      6  C           0     134.823 131.330 142.654  0.00  0.00     0.248 C 
ATOM      7  C           0     134.832 132.058 144.035  0.00  0.00     0.102 C 
ATOM      8  C           0     134.995 133.511 143.520  0.00  0.00     0.119 C 
ATOM      9  C           0     136.145 133.279 142.511  0.00  0.00     0.249 C 
ATOM     10  O           0     135.749 132.069 141.822  0.00  0.00    -0.350 OA
ATOM     11  N           0     133.778 133.888 142.812  0.00  0.00    -0.211 N 
ATOM     12  C           0     136.093 131.621 144.781  0.00  0.00     0.177 C 
ATOM     13  O           0     137.217 131.593 143.902  0.00  0.00    -0.322 OA
ATOM     14  C           0     137.397 132.933 143.332  0.00  0.00     0.311 C 
ATOM     15  O           0     137.702 133.914 144.296  0.00  0.00    -0.319 OA
ATOM     16  C           0     136.407 132.603 145.913  0.00  0.00     0.134 C 
ATOM     17  C           0     136.665 134.022 145.264  0.00  0.00     0.198 C 
ATOM     18  C           0     135.388 134.476 144.605  0.00  0.00     0.182 C 
ATOM     19  H           0     132.813 130.980 141.894  0.00  0.00     0.180 HD
ATOM     20  H           0     133.326 134.724 143.007  0.00  0.00     0.178 HD
ENDROOT
BRANCH  16  21
ATOM     21  O           0     135.283 132.703 146.790  0.00  0.00    -0.382 OA
ATOM     22  H           0     135.633 132.904 147.670  0.00  0.00     0.210 HD
ENDBRANCH  16  21
BRANCH  16  23
ATOM     23  C           0     137.630 132.118 146.694  0.00  0.00     0.207 C 
BRANCH  23  24
ATOM     24  O           0     137.875 130.744 146.392  0.00  0.00    -0.398 OA
ATOM     25  H           0     138.775 130.690 146.042  0.00  0.00     0.209 HD
ENDBRANCH  23  24
ENDBRANCH  16  23
BRANCH  18  26
ATOM     26  O           0     135.580 135.774 144.039  0.00  0.00    -0.390 OA
ATOM     27  H           0     136.337 136.169 144.494  0.00  0.00     0.210 HD
ENDBRANCH  18  26
BRANCH  14  28
ATOM     28  O           0     138.511 132.872 142.440  0.00  0.00    -0.341 OA
ATOM     29  H           0     139.080 132.155 142.750  0.00  0.00     0.215 HD
ENDBRANCH  14  28
TORSDOF 5
ENDMDL
MODEL 2
REMARK VINA RESULT:      -7.4      1.735      2.348
REMARK  5 active torsions:
REMARK  status: ('A' for Active; 'I' for Inactive)
REMARK    1  A    between atoms: C_14  and  O_15 
REMARK    2  A    between atoms: C_17  and  O_18 
REMARK    3  A    between atoms: C_17  and  C_19 
REMARK    4  A    between atoms: C_19  and  O_20 
REMARK    5  A    between atoms: C_22  and  O_23 
ROOT
ATOM      1  N           0     134.871 136.623 142.805  0.00  0.00    -0.235 N 
ATOM      2  H           0     134.723 136.756 141.856  0.00  0.00     0.174 HD
ATOM      3  H           0     134.995 137.387 143.389  0.00  0.00     0.174 HD
ATOM      4  C           0     134.900 135.416 143.296  0.00  0.00     0.670 C 
ATOM      5  N           0     134.721 134.292 142.493  0.00  0.00    -0.200 N 
ATOM      6  C           0     135.609 133.143 142.843  0.00  0.00     0.248 C 
ATOM      7  C           0     135.180 132.768 144.297  0.00  0.00     0.102 C 
ATOM      8  C           0     135.826 133.968 145.036  0.00  0.00     0.119 C 
ATOM      9  C           0     137.222 133.935 144.372  0.00  0.00     0.249 C 
ATOM     10  O           0     136.923 133.737 142.969  0.00  0.00    -0.350 OA
ATOM     11  N           0     135.117 135.182 144.650  0.00  0.00    -0.211 N 
ATOM     12  C           0     135.899 131.472 144.672  0.00  0.00     0.177 C 
ATOM     13  O           0     137.259 131.504 144.239  0.00  0.00    -0.322 OA
ATOM     14  C           0     137.919 132.656 144.862  0.00  0.00     0.311 C 
ATOM     15  O           0     137.978 132.574 146.268  0.00  0.00    -0.319 OA
ATOM     16  C           0     135.896 131.284 146.191  0.00  0.00     0.134 C 
ATOM     17  C           0     136.674 132.502 146.831  0.00  0.00     0.198 C 
ATOM     18  C           0     135.908 133.763 146.525  0.00  0.00     0.182 C 
ATOM     19  H           0     134.076 134.258 141.769  0.00  0.00     0.180 HD
ATOM     20  H           0     134.798 135.808 145.319  0.00  0.00     0.178 HD
ENDROOT
BRANCH  16  21
ATOM     21  O           0     134.550 131.300 146.676  0.00  0.00    -0.382 OA
ATOM     22  H           0     134.594 131.130 147.628  0.00  0.00     0.210 HD
ENDBRANCH  16  21
BRANCH  16  23
ATOM     23  C           0     136.557 129.952 146.549  0.00  0.00     0.207 C 
BRANCH  23  24
ATOM     24  O           0     135.682 128.876 146.203  0.00  0.00    -0.398 OA
ATOM     25  H           0     134.838 129.050 146.642  0.00  0.00     0.209 HD
ENDBRANCH  23  24
ENDBRANCH  16  23
BRANCH  18  26
ATOM     26  O           0     136.570 134.880 147.121  0.00  0.00    -0.390 OA
ATOM     27  H           0     136.584 135.584 146.457  0.00  0.00     0.210 HD
ENDBRANCH  18  26
BRANCH  14  28
ATOM     28  O           0     139.269 132.679 144.394  0.00  0.00    -0.341 OA
ATOM     29  H           0     139.401 131.871 143.879  0.00  0.00     0.215 HD
ENDBRANCH  14  28
TORSDOF 5
ENDMDL
MODEL 3
REMARK VINA RESULT:      -7.1      2.841      4.645
REMARK  5 active torsions:
REMARK  status: ('A' for Active; 'I' for Inactive)
REMARK    1  A    between atoms: C_14  and  O_15 
REMARK    2  A    between atoms: C_17  and  O_18 
REMARK    3  A    between atoms: C_17  and  C_19 
REMARK    4  A    between atoms: C_19  and  O_20 
REMARK    5  A    between atoms: C_22  and  O_23 
ROOT
ATOM      1  N           0     134.169 130.709 149.390  0.00  0.00    -0.235 N 
ATOM      2  H           0     134.426 130.714 150.326  0.00  0.00     0.174 HD
ATOM      3  H           0     133.535 130.053 149.064  0.00  0.00     0.174 HD
ATOM      4  C           0     134.675 131.589 148.571  0.00  0.00     0.670 C 
ATOM      5  N           0     135.585 132.553 149.000  0.00  0.00    -0.200 N 
ATOM      6  C           0     136.693 132.819 148.035  0.00  0.00     0.248 C 
ATOM      7  C           0     135.963 133.375 146.771  0.00  0.00     0.102 C 
ATOM      8  C           0     135.349 132.045 146.266  0.00  0.00     0.119 C 
ATOM      9  C           0     136.603 131.146 146.373  0.00  0.00     0.249 C 
ATOM     10  O           0     137.161 131.501 147.661  0.00  0.00    -0.350 OA
ATOM     11  N           0     134.338 131.611 147.223  0.00  0.00    -0.211 N 
ATOM     12  C           0     137.034 133.863 145.795  0.00  0.00     0.177 C 
ATOM     13  O           0     138.119 132.938 145.731  0.00  0.00    -0.322 OA
ATOM     14  C           0     137.596 131.635 145.309  0.00  0.00     0.311 C 
ATOM     15  O           0     137.040 131.648 144.013  0.00  0.00    -0.319 OA
ATOM     16  C           0     136.448 133.997 144.388  0.00  0.00     0.134 C 
ATOM     17  C           0     135.956 132.565 143.930  0.00  0.00     0.198 C 
ATOM     18  C           0     134.843 132.134 144.851  0.00  0.00     0.182 C 
ATOM     19  H           0     135.506 133.011 149.851  0.00  0.00     0.180 HD
ATOM     20  H           0     133.451 131.351 146.929  0.00  0.00     0.178 HD
ENDROOT
BRANCH  16  21
ATOM     21  O           0     135.320 134.875 144.416  0.00  0.00    -0.382 OA
ATOM     22  H           0     134.636 134.435 144.941  0.00  0.00     0.210 HD
ENDBRANCH  16  21
BRANCH  16  23
ATOM     23  C           0     137.509 134.550 143.435  0.00  0.00     0.207 C 
BRANCH  23  24
ATOM     24  O           0     137.477 133.819 142.208  0.00  0.00    -0.398 OA
ATOM     25  H           0     138.076 134.270 141.598  0.00  0.00     0.209 HD
ENDBRANCH  23  24
ENDBRANCH  16  23
BRANCH  18  26
ATOM     26  O           0     134.354 130.856 144.441  0.00  0.00    -0.390 OA
ATOM     27  H           0     133.669 131.018 143.777  0.00  0.00     0.210 HD
ENDBRANCH  18  26
BRANCH  14  28
ATOM     28  O           0     138.696 130.723 145.275  0.00  0.00    -0.341 OA
ATOM     29  H           0     139.469 131.204 145.601  0.00  0.00     0.215 HD
ENDBRANCH  14  28
TORSDOF 5
ENDMDL
MODEL 4
REMARK VINA RESULT:      -7.1      2.436      4.620
REMARK  5 active torsions:
REMARK  status: ('A' for Active; 'I' for Inactive)
REMARK    1  A    between atoms: C_14  and  O_15 
REMARK    2  A    between atoms: C_17  and  O_18 
REMARK    3  A    between atoms: C_17  and  C_19 
REMARK    4  A    between atoms: C_19  and  O_20 
REMARK    5  A    between atoms: C_22  and  O_23 
ROOT
ATOM      1  N           0     136.719 131.399 147.875  0.00  0.00    -0.235 N 
ATOM      2  H           0     137.093 131.873 148.635  0.00  0.00     0.174 HD
ATOM      3  H           0     136.815 130.437 147.808  0.00  0.00     0.174 HD
ATOM      4  C           0     136.083 132.058 146.947  0.00  0.00     0.670 C 
ATOM      5  N           0     135.918 133.440 147.008  0.00  0.00    -0.200 N 
ATOM      6  C           0     136.063 134.131 145.693  0.00  0.00     0.248 C 
ATOM      7  C           0     134.899 133.546 144.832  0.00  0.00     0.102 C 
ATOM      8  C           0     135.497 132.140 144.574  0.00  0.00     0.119 C 
ATOM      9  C           0     136.926 132.561 144.158  0.00  0.00     0.249 C 
ATOM     10  O           0     137.275 133.574 145.131  0.00  0.00    -0.350 OA
ATOM     11  N           0     135.537 131.417 145.840  0.00  0.00    -0.211 N 
ATOM     12  C           0     134.843 134.340 143.527  0.00  0.00     0.177 C 
ATOM     13  O           0     136.157 134.569 143.018  0.00  0.00    -0.322 OA
ATOM     14  C           0     136.805 133.272 142.801  0.00  0.00     0.311 C 
ATOM     15  O           0     136.162 132.480 141.829  0.00  0.00    -0.319 OA
ATOM     16  C           0     134.058 133.564 142.466  0.00  0.00     0.134 C 
ATOM     17  C           0     134.817 132.203 142.202  0.00  0.00     0.198 C 
ATOM     18  C           0     134.790 131.395 143.475  0.00  0.00     0.182 C 
ATOM     19  H           0     135.726 133.912 147.833  0.00  0.00     0.180 HD
ATOM     20  H           0     135.187 130.515 145.911  0.00  0.00     0.178 HD
ENDROOT
BRANCH  16  21
ATOM     21  O           0     132.749 133.266 142.958  0.00  0.00    -0.382 OA
ATOM     22  H           0     132.283 132.802 142.248  0.00  0.00     0.210 HD
ENDBRANCH  16  21
BRANCH  16  23
ATOM     23  C           0     133.951 134.398 141.188  0.00  0.00     0.207 C 
BRANCH  23  24
ATOM     24  O           0     133.839 135.781 141.528  0.00  0.00    -0.398 OA
ATOM     25  H           0     133.003 135.886 142.002  0.00  0.00     0.209 HD
ENDBRANCH  23  24
ENDBRANCH  16  23
BRANCH  18  26
ATOM     26  O           0     135.440 130.141 143.257  0.00  0.00    -0.390 OA
ATOM     27  H           0     134.842 129.606 142.716  0.00  0.00     0.210 HD
ENDBRANCH  18  26
BRANCH  14  28
ATOM     28  O           0     138.124 133.528 142.315  0.00  0.00    -0.341 OA
ATOM     29  H           0     138.530 132.669 142.137  0.00  0.00     0.215 HD
ENDBRANCH  14  28
TORSDOF 5
ENDMDL
MODEL 5
REMARK VINA RESULT:      -6.9      1.971      3.443
REMARK  5 active torsions:
REMARK  status: ('A' for Active; 'I' for Inactive)
REMARK    1  A    between atoms: C_14  and  O_15 
REMARK    2  A    between atoms: C_17  and  O_18 
REMARK    3  A    between atoms: C_17  and  C_19 
REMARK    4  A    between atoms: C_19  and  O_20 
REMARK    5  A    between atoms: C_22  and  O_23 
ROOT
ATOM      1  N           0     135.519 133.297 141.071  0.00  0.00    -0.235 N 
ATOM      2  H           0     135.839 133.962 140.442  0.00  0.00     0.174 HD
ATOM      3  H           0     134.652 132.884 140.941  0.00  0.00     0.174 HD
ATOM      4  C           0     136.259 132.956 142.090  0.00  0.00     0.670 C 
ATOM      5  N           0     137.513 133.522 142.309  0.00  0.00    -0.200 N 
ATOM      6  C           0     137.811 133.808 143.743  0.00  0.00     0.248 C 
ATOM      7  C           0     137.794 132.399 144.418  0.00  0.00     0.102 C 
ATOM      8  C           0     136.263 132.164 144.403  0.00  0.00     0.119 C 
ATOM      9  C           0     135.804 133.534 144.954  0.00  0.00     0.249 C 
ATOM     10  O           0     136.624 134.480 144.225  0.00  0.00    -0.350 OA
ATOM     11  N           0     135.833 132.012 143.018  0.00  0.00    -0.211 N 
ATOM     12  C           0     138.286 132.569 145.856  0.00  0.00     0.177 C 
ATOM     13  O           0     137.712 133.731 146.453  0.00  0.00    -0.322 OA
ATOM     14  C           0     136.252 133.598 146.422  0.00  0.00     0.311 C 
ATOM     15  O           0     135.772 132.513 147.183  0.00  0.00    -0.319 OA
ATOM     16  C           0     137.880 131.358 146.701  0.00  0.00     0.134 C 
ATOM     17  C           0     136.301 131.281 146.707  0.00  0.00     0.198 C 
ATOM     18  C           0     135.836 131.030 145.296  0.00  0.00     0.182 C 
ATOM     19  H           0     138.138 133.713 141.592  0.00  0.00     0.180 HD
ATOM     20  H           0     135.271 131.268 142.748  0.00  0.00     0.178 HD
ENDROOT
BRANCH  16  21
ATOM     21  O           0     138.390 130.162 146.106  0.00  0.00    -0.382 OA
ATOM     22  H           0     137.740 129.466 146.278  0.00  0.00     0.210 HD
ENDBRANCH  16  21
BRANCH  16  23
ATOM     23  C           0     138.435 131.507 148.118  0.00  0.00     0.207 C 
BRANCH  23  24
ATOM     24  O           0     137.432 131.135 149.065  0.00  0.00    -0.398 OA
ATOM     25  H           0     137.185 130.222 148.868  0.00  0.00     0.209 HD
ENDBRANCH  23  24
ENDBRANCH  16  23
BRANCH  18  26
ATOM     26  O           0     134.412 130.921 145.275  0.00  0.00    -0.390 OA
ATOM     27  H           0     134.103 131.117 146.171  0.00  0.00     0.210 HD
ENDBRANCH  18  26
BRANCH  14  28
ATOM     28  O           0     135.702 134.783 147.002  0.00  0.00    -0.341 OA
ATOM     29  H           0     135.158 135.202 146.322  0.00  0.00     0.215 HD
ENDBRANCH  14  28
TORSDOF 5
ENDMDL
MODEL 6
REMARK VINA RESULT:      -6.6      9.387     11.085
REMARK  5 active torsions:
REMARK  status: ('A' for Active; 'I' for Inactive)
REMARK    1  A    between atoms: C_14  and  O_15 
REMARK    2  A    between atoms: C_17  and  O_18 
REMARK    3  A    between atoms: C_17  and  C_19 
REMARK    4  A    between atoms: C_19  and  O_20 
REMARK    5  A    between atoms: C_22  and  O_23 
ROOT
ATOM      1  N           0     129.875 131.722 137.143  0.00  0.00    -0.235 N 
ATOM      2  H           0     129.534 130.825 136.997  0.00  0.00     0.174 HD
ATOM      3  H           0     129.561 132.243 137.898  0.00  0.00     0.174 HD
ATOM      4  C           0     130.759 132.222 136.326  0.00  0.00     0.670 C 
ATOM      5  N           0     131.241 131.504 135.234  0.00  0.00    -0.200 N 
ATOM      6  C           0     131.428 132.321 134.000  0.00  0.00     0.248 C 
ATOM      7  C           0     132.516 133.366 134.405  0.00  0.00     0.102 C 
ATOM      8  C           0     131.635 134.266 135.308  0.00  0.00     0.119 C 
ATOM      9  C           0     130.410 134.417 134.375  0.00  0.00     0.249 C 
ATOM     10  O           0     130.197 133.072 133.881  0.00  0.00    -0.350 OA
ATOM     11  N           0     131.268 133.505 136.497  0.00  0.00    -0.211 N 
ATOM     12  C           0     132.920 134.127 133.141  0.00  0.00     0.177 C 
ATOM     13  O           0     131.772 134.453 132.358  0.00  0.00    -0.322 OA
ATOM     14  C           0     130.864 135.263 133.176  0.00  0.00     0.311 C 
ATOM     15  O           0     131.414 136.502 133.563  0.00  0.00    -0.319 OA
ATOM     16  C           0     133.621 135.436 133.512  0.00  0.00     0.134 C 
ATOM     17  C           0     132.597 136.318 134.332  0.00  0.00     0.198 C 
ATOM     18  C           0     132.274 135.594 135.614  0.00  0.00     0.182 C 
ATOM     19  H           0     131.437 130.554 135.273  0.00  0.00     0.180 HD
ATOM     20  H           0     131.381 133.880 137.385  0.00  0.00     0.178 HD
ENDROOT
BRANCH  16  21
ATOM     21  O           0     134.750 135.159 134.344  0.00  0.00    -0.382 OA
ATOM     22  H           0     135.537 135.420 133.844  0.00  0.00     0.210 HD
ENDBRANCH  16  21
BRANCH  16  23
ATOM     23  C           0     134.081 136.155 132.242  0.00  0.00     0.207 C 
BRANCH  23  24
ATOM     24  O           0     133.844 137.557 132.375  0.00  0.00    -0.398 OA
ATOM     25  H           0     132.885 137.678 132.403  0.00  0.00     0.209 HD
ENDBRANCH  23  24
ENDBRANCH  16  23
BRANCH  18  26
ATOM     26  O           0     131.375 136.384 136.394  0.00  0.00    -0.390 OA
ATOM     27  H           0     130.515 136.348 135.952  0.00  0.00     0.210 HD
ENDBRANCH  18  26
BRANCH  14  28
ATOM     28  O           0     129.715 135.555 132.379  0.00  0.00    -0.341 OA
ATOM     29  H           0     129.685 136.516 132.271  0.00  0.00     0.215 HD
ENDBRANCH  14  28
TORSDOF 5
ENDMDL
MODEL 7
REMARK VINA RESULT:      -6.6      2.552      3.972
REMARK  5 active torsions:
REMARK  status: ('A' for Active; 'I' for Inactive)
REMARK    1  A    between atoms: C_14  and  O_15 
REMARK    2  A    between atoms: C_17  and  O_18 
REMARK    3  A    between atoms: C_17  and  C_19 
REMARK    4  A    between atoms: C_19  and  O_20 
REMARK    5  A    between atoms: C_22  and  O_23 
ROOT
ATOM      1  N           0     138.112 134.602 142.200  0.00  0.00    -0.235 N 
ATOM      2  H           0     137.705 135.303 141.667  0.00  0.00     0.174 HD
ATOM      3  H           0     138.855 134.091 141.845  0.00  0.00     0.174 HD
ATOM      4  C           0     137.662 134.352 143.398  0.00  0.00     0.670 C 
ATOM      5  N           0     136.600 135.067 143.949  0.00  0.00    -0.200 N 
ATOM      6  C           0     135.647 134.233 144.738  0.00  0.00     0.248 C 
ATOM      7  C           0     136.515 133.682 145.913  0.00  0.00     0.102 C 
ATOM      8  C           0     137.336 132.639 145.113  0.00  0.00     0.119 C 
ATOM      9  C           0     136.179 131.970 144.333  0.00  0.00     0.249 C 
ATOM     10  O           0     135.382 133.094 143.886  0.00  0.00    -0.350 OA
ATOM     11  N           0     138.214 133.352 144.192  0.00  0.00    -0.211 N 
ATOM     12  C           0     135.576 132.973 146.890  0.00  0.00     0.177 C 
ATOM     13  O           0     134.616 132.185 146.187  0.00  0.00    -0.322 OA
ATOM     14  C           0     135.331 131.206 145.361  0.00  0.00     0.311 C 
ATOM     15  O           0     136.089 130.286 146.114  0.00  0.00    -0.319 OA
ATOM     16  C           0     136.371 132.038 147.805  0.00  0.00     0.134 C 
ATOM     17  C           0     137.074 130.953 146.896  0.00  0.00     0.198 C 
ATOM     18  C           0     138.057 131.658 145.997  0.00  0.00     0.182 C 
ATOM     19  H           0     136.491 136.023 143.829  0.00  0.00     0.180 HD
ATOM     20  H           0     139.159 133.141 144.138  0.00  0.00     0.178 HD
ENDROOT
BRANCH  16  21
ATOM     21  O           0     137.383 132.780 148.490  0.00  0.00    -0.382 OA
ATOM     22  H           0     137.288 132.577 149.432  0.00  0.00     0.210 HD
ENDBRANCH  16  21
BRANCH  16  23
ATOM     23  C           0     135.431 131.387 148.822  0.00  0.00     0.207 C 
BRANCH  23  24
ATOM     24  O           0     134.198 132.108 148.862  0.00  0.00    -0.398 OA
ATOM     25  H           0     133.518 131.520 148.506  0.00  0.00     0.209 HD
ENDBRANCH  23  24
ENDBRANCH  16  23
BRANCH  18  26
ATOM     26  O           0     138.734 130.697 145.185  0.00  0.00    -0.390 OA
ATOM     27  H           0     139.107 130.036 145.785  0.00  0.00     0.210 HD
ENDBRANCH  18  26
BRANCH  14  28
ATOM     28  O           0     134.350 130.448 144.652  0.00  0.00    -0.341 OA
ATOM     29  H           0     133.518 130.937 144.714  0.00  0.00     0.215 HD
ENDBRANCH  14  28
TORSDOF 5
ENDMDL
MODEL 8
REMARK VINA RESULT:      -6.4      2.668      4.731
REMARK  5 active torsions:
REMARK  status: ('A' for Active; 'I' for Inactive)
REMARK    1  A    between atoms: C_14  and  O_15 
REMARK    2  A    between atoms: C_17  and  O_18 
REMARK    3  A    between atoms: C_17  and  C_19 
REMARK    4  A    between atoms: C_19  and  O_20 
REMARK    5  A    between atoms: C_22  and  O_23 
ROOT
ATOM      1  N           0     138.921 132.347 147.496  0.00  0.00    -0.235 N 
ATOM      2  H           0     138.803 132.480 148.450  0.00  0.00     0.174 HD
ATOM      3  H           0     139.813 132.285 147.121  0.00  0.00     0.174 HD
ATOM      4  C           0     137.879 132.247 146.719  0.00  0.00     0.670 C 
ATOM      5  N           0     136.580 132.324 147.218  0.00  0.00    -0.200 N 
ATOM      6  C           0     135.636 133.086 146.348  0.00  0.00     0.248 C 
ATOM      7  C           0     135.594 132.257 145.025  0.00  0.00     0.102 C 
ATOM      8  C           0     136.991 132.644 144.476  0.00  0.00     0.119 C 
ATOM      9  C           0     136.918 134.174 144.692  0.00  0.00     0.249 C 
ATOM     10  O           0     136.355 134.299 146.021  0.00  0.00    -0.350 OA
ATOM     11  N           0     138.006 132.063 145.347  0.00  0.00    -0.211 N 
ATOM     12  C           0     134.498 132.852 144.141  0.00  0.00     0.177 C 
ATOM     13  O           0     134.542 134.279 144.172  0.00  0.00    -0.322 OA
ATOM     14  C           0     135.865 134.714 143.713  0.00  0.00     0.311 C 
ATOM     15  O           0     136.137 134.362 142.375  0.00  0.00    -0.319 OA
ATOM     16  C           0     134.690 132.409 142.688  0.00  0.00     0.134 C 
ATOM     17  C           0     136.092 132.951 142.198  0.00  0.00     0.198 C 
ATOM     18  C           0     137.166 132.291 143.023  0.00  0.00     0.182 C 
ATOM     19  H           0     136.313 131.919 148.058  0.00  0.00     0.180 HD
ATOM     20  H           0     138.747 131.555 144.980  0.00  0.00     0.178 HD
ENDROOT
BRANCH  16  21
ATOM     21  O           0     134.707 130.981 142.619  0.00  0.00    -0.382 OA
ATOM     22  H           0     135.485 130.686 143.114  0.00  0.00     0.210 HD
ENDBRANCH  16  21
BRANCH  16  23
ATOM     23  C           0     133.550 132.954 141.826  0.00  0.00     0.207 C 
BRANCH  23  24
ATOM     24  O           0     134.092 133.719 140.748  0.00  0.00    -0.398 OA
ATOM     25  H           0     135.051 133.601 140.775  0.00  0.00     0.209 HD
ENDBRANCH  23  24
ENDBRANCH  16  23
BRANCH  18  26
ATOM     26  O           0     138.449 132.737 142.579  0.00  0.00    -0.390 OA
ATOM     27  H           0     138.956 132.963 143.372  0.00  0.00     0.210 HD
ENDBRANCH  18  26
BRANCH  14  28
ATOM     28  O           0     135.891 136.141 143.776  0.00  0.00    -0.341 OA
ATOM     29  H           0     135.916 136.380 144.712  0.00  0.00     0.215 HD
ENDBRANCH  14  28
TORSDOF 5
ENDMDL
MODEL 9
REMARK VINA RESULT:      -6.3      1.336      2.480
REMARK  5 active torsions:
REMARK  status: ('A' for Active; 'I' for Inactive)
REMARK    1  A    between atoms: C_14  and  O_15 
REMARK    2  A    between atoms: C_17  and  O_18 
REMARK    3  A    between atoms: C_17  and  C_19 
REMARK    4  A    between atoms: C_19  and  O_20 
REMARK    5  A    between atoms: C_22  and  O_23 
ROOT
ATOM      1  N           0     131.977 132.598 141.761  0.00  0.00    -0.235 N 
ATOM      2  H           0     131.693 132.758 140.847  0.00  0.00     0.174 HD
ATOM      3  H           0     131.320 132.562 142.474  0.00  0.00     0.174 HD
ATOM      4  C           0     133.241 132.428 142.030  0.00  0.00     0.670 C 
ATOM      5  N           0     134.215 132.468 141.035  0.00  0.00    -0.200 N 
ATOM      6  C           0     135.474 133.159 141.440  0.00  0.00     0.248 C 
ATOM      7  C           0     136.021 132.285 142.613  0.00  0.00     0.102 C 
ATOM      8  C           0     135.003 132.712 143.701  0.00  0.00     0.119 C 
ATOM      9  C           0     135.059 134.244 143.494  0.00  0.00     0.249 C 
ATOM     10  O           0     135.022 134.389 142.053  0.00  0.00    -0.350 OA
ATOM     11  N           0     133.688 132.203 143.327  0.00  0.00    -0.211 N 
ATOM     12  C           0     137.415 132.803 142.967  0.00  0.00     0.177 C 
ATOM     13  O           0     137.437 134.230 142.975  0.00  0.00    -0.322 OA
ATOM     14  C           0     136.451 134.705 143.951  0.00  0.00     0.311 C 
ATOM     15  O           0     136.743 134.321 145.275  0.00  0.00    -0.319 OA
ATOM     16  C           0     137.823 132.320 144.360  0.00  0.00     0.134 C 
ATOM     17  C           0     136.784 132.904 145.399  0.00  0.00     0.198 C 
ATOM     18  C           0     135.430 132.318 145.090  0.00  0.00     0.182 C 
ATOM     19  H           0     134.086 132.079 140.155  0.00  0.00     0.180 HD
ATOM     20  H           0     133.142 131.715 143.963  0.00  0.00     0.178 HD
ENDROOT
BRANCH  16  21
ATOM     21  O           0     137.763 130.892 144.412  0.00  0.00    -0.382 OA
ATOM     22  H           0     137.129 130.665 145.107  0.00  0.00     0.210 HD
ENDBRANCH  16  21
BRANCH  16  23
ATOM     23  C           0     139.246 132.787 144.674  0.00  0.00     0.207 C 
BRANCH  23  24
ATOM     24  O           0     139.952 133.020 143.455  0.00  0.00    -0.398 OA
ATOM     25  H           0     140.884 132.832 143.631  0.00  0.00     0.209 HD
ENDBRANCH  23  24
ENDBRANCH  16  23
BRANCH  18  26
ATOM     26  O           0     134.475 132.802 146.035  0.00  0.00    -0.390 OA
ATOM     27  H           0     134.427 133.761 145.918  0.00  0.00     0.210 HD
ENDBRANCH  18  26
BRANCH  14  28
ATOM     28  O           0     136.476 136.134 143.923  0.00  0.00    -0.341 OA
ATOM     29  H           0     137.330 136.407 144.286  0.00  0.00     0.215 HD
ENDBRANCH  14  28
TORSDOF 5
ENDMDL
