MODEL 1
REMARK VINA RESULT:      -8.2      0.000      0.000
REMARK  5 active torsions:
REMARK  status: ('A' for Active; 'I' for Inactive)
REMARK    1  A    between atoms: C_6  and  C_7 
REMARK    2  A    between atoms: C_7  and  O_8 
REMARK    3  A    between atoms: O_8  and  C_9 
REMARK       I    between atoms: C_9  and  N_10 
REMARK    4  A    between atoms: C_24  and  O_25 
REMARK    5  A    between atoms: C_24  and  O_26 
ROOT
ATOM      1  N           0     137.452 135.368 143.250  0.00  0.00    -0.235 N 
ATOM      2  H           0     137.495 136.245 142.838  0.00  0.00     0.174 HD
ATOM      3  H           0     138.269 134.905 143.492  0.00  0.00     0.174 HD
ATOM      4  C           0     136.295 134.815 143.486  0.00  0.00     0.672 C 
ATOM      5  N           0     135.103 135.439 143.166  0.00  0.00    -0.218 N 
ATOM      6  C           0     133.946 134.605 142.851  0.00  0.00     0.151 C 
ATOM      7  C           0     133.684 133.550 143.908  0.00  0.00     0.180 C 
ATOM      8  N           0     133.027 134.183 145.072  0.00  0.00    -0.216 N 
ATOM      9  C           0     133.563 133.623 146.206  0.00  0.00     0.670 C 
ATOM     10  N           0     132.996 133.660 147.380  0.00  0.00    -0.235 N 
ATOM     11  H           0     132.142 134.106 147.492  0.00  0.00     0.174 HD
ATOM     12  H           0     133.429 133.244 148.141  0.00  0.00     0.174 HD
ATOM     13  C           0     134.941 132.929 144.492  0.00  0.00     0.217 C 
ATOM     14  N           0     134.769 133.017 145.950  0.00  0.00    -0.191 N 
ATOM     15  N           0     136.183 133.574 144.065  0.00  0.00    -0.179 N 
ATOM     16  C           0     137.265 132.611 144.319  0.00  0.00     0.106 C 
ATOM     17  C           0     137.900 132.887 145.684  0.00  0.00     0.033 C 
ATOM     18  C           0     136.622 131.208 144.310  0.00  0.00     0.098 C 
ATOM     19  C           0     135.107 131.456 144.069  0.00  0.00     0.210 C 
ATOM     20  H           0     135.037 136.407 143.153  0.00  0.00     0.178 HD
ATOM     21  H           0     132.341 134.869 145.041  0.00  0.00     0.178 HD
ATOM     22  H           0     135.397 132.700 146.618  0.00  0.00     0.180 HD
ENDROOT
BRANCH   6  23
ATOM     23  C           0     134.190 133.910 141.510  0.00  0.00     0.208 C 
BRANCH  23  24
ATOM     24  O           0     133.049 134.125 140.638  0.00  0.00    -0.302 OA
BRANCH  24  25
ATOM     25  C           0     133.178 134.886 139.535  0.00  0.00     0.358 C 
ATOM     26  N           0     133.534 136.181 139.648  0.00  0.00    -0.346 N 
ATOM     27  H           0     133.696 136.565 140.524  0.00  0.00     0.161 HD
ATOM     28  H           0     133.627 136.729 138.853  0.00  0.00     0.161 HD
ATOM     29  O           0     132.974 134.405 138.438  0.00  0.00    -0.239 OA
ENDBRANCH  24  25
ENDBRANCH  23  24
ENDBRANCH   6  23
BRANCH  19  30
ATOM     30  O           0     134.315 130.592 144.887  0.00  0.00    -0.362 OA
ATOM     31  H           0     133.441 130.545 144.478  0.00  0.00     0.213 HD
ENDBRANCH  19  30
BRANCH  19  32
ATOM     32  O           0     134.779 131.290 142.688  0.00  0.00    -0.362 OA
ATOM     33  H           0     133.816 131.234 142.634  0.00  0.00     0.213 HD
ENDBRANCH  19  32
TORSDOF 5
ENDMDL
MODEL 2
REMARK VINA RESULT:      -7.7      2.243      3.894
REMARK  5 active torsions:
REMARK  status: ('A' for Active; 'I' for Inactive)
REMARK    1  A    between atoms: C_6  and  C_7 
REMARK    2  A    between atoms: C_7  and  O_8 
REMARK    3  A    between atoms: O_8  and  C_9 
REMARK       I    between atoms: C_9  and  N_10 
REMARK    4  A    between atoms: C_24  and  O_25 
REMARK    5  A    between atoms: C_24  and  O_26 
ROOT
ATOM      1  N           0     134.883 130.357 145.278  0.00  0.00    -0.235 N 
ATOM      2  H           0     134.952 129.437 144.979  0.00  0.00     0.174 HD
ATOM      3  H           0     134.714 130.552 146.213  0.00  0.00     0.174 HD
ATOM      4  C           0     135.024 131.332 144.424  0.00  0.00     0.672 C 
ATOM      5  N           0     135.273 131.104 143.082  0.00  0.00    -0.218 N 
ATOM      6  C           0     134.805 132.092 142.113  0.00  0.00     0.151 C 
ATOM      7  C           0     135.239 133.502 142.464  0.00  0.00     0.180 C 
ATOM      8  N           0     136.661 133.678 142.097  0.00  0.00    -0.216 N 
ATOM      9  C           0     137.257 134.417 143.090  0.00  0.00     0.670 C 
ATOM     10  N           0     138.380 135.064 142.947  0.00  0.00    -0.235 N 
ATOM     11  H           0     138.848 135.041 142.097  0.00  0.00     0.174 HD
ATOM     12  H           0     138.747 135.568 143.689  0.00  0.00     0.174 HD
ATOM     13  C           0     135.206 133.811 143.951  0.00  0.00     0.217 C 
ATOM     14  N           0     136.524 134.390 144.251  0.00  0.00    -0.191 N 
ATOM     15  N           0     134.931 132.650 144.799  0.00  0.00    -0.179 N 
ATOM     16  C           0     134.481 133.176 146.096  0.00  0.00     0.106 C 
ATOM     17  C           0     135.664 133.271 147.061  0.00  0.00     0.033 C 
ATOM     18  C           0     133.903 134.582 145.830  0.00  0.00     0.098 C 
ATOM     19  C           0     134.093 134.818 144.306  0.00  0.00     0.210 C 
ATOM     20  H           0     135.746 130.309 142.793  0.00  0.00     0.178 HD
ATOM     21  H           0     137.094 133.334 141.300  0.00  0.00     0.178 HD
ATOM     22  H           0     136.824 134.703 145.118  0.00  0.00     0.180 HD
ENDROOT
BRANCH   6  23
ATOM     23  C           0     133.277 132.045 142.058  0.00  0.00     0.208 C 
BRANCH  23  24
ATOM     24  O           0     132.793 133.076 141.157  0.00  0.00    -0.302 OA
BRANCH  24  25
ATOM     25  C           0     131.542 133.007 140.665  0.00  0.00     0.358 C 
ATOM     26  N           0     131.337 133.062 139.334  0.00  0.00    -0.346 N 
ATOM     27  H           0     132.091 133.152 138.731  0.00  0.00     0.161 HD
ATOM     28  H           0     130.435 133.013 138.981  0.00  0.00     0.161 HD
ATOM     29  O           0     130.597 132.895 141.422  0.00  0.00    -0.239 OA
ENDBRANCH  24  25
ENDBRANCH  23  24
ENDBRANCH   6  23
BRANCH  19  30
ATOM     30  O           0     134.512 136.160 144.049  0.00  0.00    -0.362 OA
ATOM     31  H           0     135.260 136.107 143.439  0.00  0.00     0.213 HD
ENDBRANCH  19  30
BRANCH  19  32
ATOM     32  O           0     132.894 134.515 143.591  0.00  0.00    -0.362 OA
ATOM     33  H           0     132.293 134.092 144.220  0.00  0.00     0.213 HD
ENDBRANCH  19  32
TORSDOF 5
ENDMDL
MODEL 3
REMARK VINA RESULT:      -7.4      1.818      2.587
REMARK  5 active torsions:
REMARK  status: ('A' for Active; 'I' for Inactive)
REMARK    1  A    between atoms: C_6  and  C_7 
REMARK    2  A    between atoms: C_7  and  O_8 
REMARK    3  A    between atoms: O_8  and  C_9 
REMARK       I    between atoms: C_9  and  N_10 
REMARK    4  A    between atoms: C_24  and  O_25 
REMARK    5  A    between atoms: C_24  and  O_26 
ROOT
ATOM      1  N           0     133.585 135.632 145.189  0.00  0.00    -0.235 N 
ATOM      2  H           0     132.682 135.980 145.128  0.00  0.00     0.174 HD
ATOM      3  H           0     134.251 136.101 145.717  0.00  0.00     0.174 HD
ATOM      4  C           0     133.903 134.530 144.570  0.00  0.00     0.672 C 
ATOM      5  N           0     132.988 133.822 143.812  0.00  0.00    -0.218 N 
ATOM      6  C           0     133.482 133.032 142.687  0.00  0.00     0.151 C 
ATOM      7  C           0     134.618 132.109 143.079  0.00  0.00     0.180 C 
ATOM      8  N           0     134.066 130.931 143.783  0.00  0.00    -0.216 N 
ATOM      9  C           0     134.915 130.632 144.821  0.00  0.00     0.670 C 
ATOM     10  N           0     134.955 129.477 145.424  0.00  0.00    -0.235 N 
ATOM     11  H           0     134.359 128.763 145.146  0.00  0.00     0.174 HD
ATOM     12  H           0     135.580 129.331 146.151  0.00  0.00     0.174 HD
ATOM     13  C           0     135.590 132.709 144.081  0.00  0.00     0.217 C 
ATOM     14  N           0     135.717 131.699 145.143  0.00  0.00    -0.191 N 
ATOM     15  N           0     135.170 134.001 144.625  0.00  0.00    -0.179 N 
ATOM     16  C           0     136.375 134.635 145.178  0.00  0.00     0.106 C 
ATOM     17  C           0     136.483 134.337 146.675  0.00  0.00     0.033 C 
ATOM     18  C           0     137.581 134.027 144.430  0.00  0.00     0.098 C 
ATOM     19  C           0     136.970 132.987 143.450  0.00  0.00     0.210 C 
ATOM     20  H           0     132.042 133.849 144.023  0.00  0.00     0.178 HD
ATOM     21  H           0     133.251 130.456 143.554  0.00  0.00     0.178 HD
ATOM     22  H           0     136.274 131.772 145.934  0.00  0.00     0.180 HD
ENDROOT
BRANCH   6  23
ATOM     23  C           0     133.974 133.983 141.594  0.00  0.00     0.208 C 
BRANCH  23  24
ATOM     24  O           0     132.942 134.137 140.585  0.00  0.00    -0.302 OA
BRANCH  24  25
ATOM     25  C           0     133.168 134.904 139.502  0.00  0.00     0.358 C 
ATOM     26  N           0     133.558 136.185 139.653  0.00  0.00    -0.346 N 
ATOM     27  H           0     133.675 136.555 140.542  0.00  0.00     0.161 HD
ATOM     28  H           0     133.720 136.738 138.871  0.00  0.00     0.161 HD
ATOM     29  O           0     133.021 134.441 138.388  0.00  0.00    -0.239 OA
ENDBRANCH  24  25
ENDBRANCH  23  24
ENDBRANCH   6  23
BRANCH  19  30
ATOM     30  O           0     137.766 131.802 143.407  0.00  0.00    -0.362 OA
ATOM     31  H           0     137.998 131.655 142.481  0.00  0.00     0.213 HD
ENDBRANCH  19  30
BRANCH  19  32
ATOM     32  O           0     136.821 133.548 142.144  0.00  0.00    -0.362 OA
ATOM     33  H           0     137.708 133.615 141.766  0.00  0.00     0.213 HD
ENDBRANCH  19  32
TORSDOF 5
ENDMDL
MODEL 4
REMARK VINA RESULT:      -7.1      2.087      2.873
REMARK  5 active torsions:
REMARK  status: ('A' for Active; 'I' for Inactive)
REMARK    1  A    between atoms: C_6  and  C_7 
REMARK    2  A    between atoms: C_7  and  O_8 
REMARK    3  A    between atoms: O_8  and  C_9 
REMARK       I    between atoms: C_9  and  N_10 
REMARK    4  A    between atoms: C_24  and  O_25 
REMARK    5  A    between atoms: C_24  and  O_26 
ROOT
ATOM      1  N           0     134.269 135.142 145.444  0.00  0.00    -0.235 N 
ATOM      2  H           0     133.465 135.572 145.111  0.00  0.00     0.174 HD
ATOM      3  H           0     134.842 135.606 146.073  0.00  0.00     0.174 HD
ATOM      4  C           0     134.573 133.937 145.050  0.00  0.00     0.672 C 
ATOM      5  N           0     133.783 133.232 144.160  0.00  0.00    -0.218 N 
ATOM      6  C           0     134.424 132.246 143.294  0.00  0.00     0.151 C 
ATOM      7  C           0     135.291 131.270 144.067  0.00  0.00     0.180 C 
ATOM      8  N           0     134.425 130.267 144.724  0.00  0.00    -0.216 N 
ATOM      9  C           0     134.943 130.026 145.973  0.00  0.00     0.670 C 
ATOM     10  N           0     134.673 128.968 146.686  0.00  0.00    -0.235 N 
ATOM     11  H           0     134.071 128.291 146.340  0.00  0.00     0.174 HD
ATOM     12  H           0     135.074 128.859 147.562  0.00  0.00     0.174 HD
ATOM     13  C           0     136.060 131.896 145.217  0.00  0.00     0.217 C 
ATOM     14  N           0     135.781 131.036 146.377  0.00  0.00    -0.191 N 
ATOM     15  N           0     135.701 133.289 145.490  0.00  0.00    -0.179 N 
ATOM     16  C           0     136.810 133.862 146.268  0.00  0.00     0.106 C 
ATOM     17  C           0     136.504 133.765 147.764  0.00  0.00     0.033 C 
ATOM     18  C           0     138.066 133.031 145.931  0.00  0.00     0.098 C 
ATOM     19  C           0     137.577 131.936 144.943  0.00  0.00     0.210 C 
ATOM     20  H           0     132.827 133.389 144.112  0.00  0.00     0.178 HD
ATOM     21  H           0     133.634 129.854 144.342  0.00  0.00     0.178 HD
ATOM     22  H           0     136.130 131.158 147.274  0.00  0.00     0.180 HD
ENDROOT
BRANCH   6  23
ATOM     23  C           0     135.297 132.977 142.273  0.00  0.00     0.208 C 
BRANCH  23  24
ATOM     24  O           0     134.548 133.167 141.043  0.00  0.00    -0.302 OA
BRANCH  24  25
ATOM     25  C           0     133.653 134.167 140.947  0.00  0.00     0.358 C 
ATOM     26  N           0     133.936 135.378 141.467  0.00  0.00    -0.346 N 
ATOM     27  H           0     134.785 135.528 141.912  0.00  0.00     0.161 HD
ATOM     28  H           0     133.290 136.099 141.397  0.00  0.00     0.161 HD
ATOM     29  O           0     132.589 133.979 140.390  0.00  0.00    -0.239 OA
ENDBRANCH  24  25
ENDBRANCH  23  24
ENDBRANCH   6  23
BRANCH  19  30
ATOM     30  O           0     138.187 130.678 145.236  0.00  0.00    -0.362 OA
ATOM     31  H           0     137.508 130.002 145.109  0.00  0.00     0.213 HD
ENDBRANCH  19  30
BRANCH  19  32
ATOM     32  O           0     137.833 132.322 143.591  0.00  0.00    -0.362 OA
ATOM     33  H           0     138.270 133.184 143.624  0.00  0.00     0.213 HD
ENDBRANCH  19  32
TORSDOF 5
ENDMDL
MODEL 5
REMARK VINA RESULT:      -7.1      2.714      4.520
REMARK  5 active torsions:
REMARK  status: ('A' for Active; 'I' for Inactive)
REMARK    1  A    between atoms: C_6  and  C_7 
REMARK    2  A    between atoms: C_7  and  O_8 
REMARK    3  A    between atoms: O_8  and  C_9 
REMARK       I    between atoms: C_9  and  N_10 
REMARK    4  A    between atoms: C_24  and  O_25 
REMARK    5  A    between atoms: C_24  and  O_26 
ROOT
ATOM      1  N           0     135.772 130.876 143.188  0.00  0.00    -0.235 N 
ATOM      2  H           0     136.308 130.105 143.432  0.00  0.00     0.174 HD
ATOM      3  H           0     135.390 130.939 142.299  0.00  0.00     0.174 HD
ATOM      4  C           0     135.558 131.822 144.058  0.00  0.00     0.672 C 
ATOM      5  N           0     136.076 131.773 145.341  0.00  0.00    -0.218 N 
ATOM      6  C           0     136.362 133.033 146.022  0.00  0.00     0.151 C 
ATOM      7  C           0     135.183 133.987 146.000  0.00  0.00     0.180 C 
ATOM      8  N           0     134.193 133.558 147.012  0.00  0.00    -0.216 N 
ATOM      9  C           0     132.943 133.730 146.468  0.00  0.00     0.670 C 
ATOM     10  N           0     131.845 133.803 147.167  0.00  0.00    -0.235 N 
ATOM     11  H           0     131.880 133.734 148.134  0.00  0.00     0.174 HD
ATOM     12  H           0     130.994 133.926 146.720  0.00  0.00     0.174 HD
ATOM     13  C           0     134.400 133.979 144.698  0.00  0.00     0.217 C 
ATOM     14  N           0     132.994 133.817 145.099  0.00  0.00    -0.191 N 
ATOM     15  N           0     134.809 132.934 143.759  0.00  0.00    -0.179 N 
ATOM     16  C           0     134.314 133.343 142.437  0.00  0.00     0.106 C 
ATOM     17  C           0     132.956 132.692 142.162  0.00  0.00     0.033 C 
ATOM     18  C           0     134.166 134.879 142.472  0.00  0.00     0.098 C 
ATOM     19  C           0     134.576 135.294 143.912  0.00  0.00     0.210 C 
ATOM     20  H           0     136.243 130.923 145.776  0.00  0.00     0.178 HD
ATOM     21  H           0     134.391 133.217 147.898  0.00  0.00     0.178 HD
ATOM     22  H           0     132.232 133.780 144.500  0.00  0.00     0.180 HD
ENDROOT
BRANCH   6  23
ATOM     23  C           0     137.553 133.706 145.337  0.00  0.00     0.208 C 
BRANCH  23  24
ATOM     24  O           0     138.104 132.812 144.334  0.00  0.00    -0.302 OA
BRANCH  24  25
ATOM     25  C           0     138.653 133.314 143.212  0.00  0.00     0.358 C 
ATOM     26  N           0     137.897 134.021 142.349  0.00  0.00    -0.346 N 
ATOM     27  H           0     136.956 134.166 142.536  0.00  0.00     0.161 HD
ATOM     28  H           0     138.294 134.382 141.541  0.00  0.00     0.161 HD
ATOM     29  O           0     139.831 133.130 142.979  0.00  0.00    -0.239 OA
ENDBRANCH  24  25
ENDBRANCH  23  24
ENDBRANCH   6  23
BRANCH  19  30
ATOM     30  O           0     133.710 136.314 144.412  0.00  0.00    -0.362 OA
ATOM     31  H           0     134.161 137.157 144.271  0.00  0.00     0.213 HD
ENDBRANCH  19  30
BRANCH  19  32
ATOM     32  O           0     135.939 135.722 143.947  0.00  0.00    -0.362 OA
ATOM     33  H           0     136.450 135.069 143.450  0.00  0.00     0.213 HD
ENDBRANCH  19  32
TORSDOF 5
ENDMDL
MODEL 6
REMARK VINA RESULT:      -7.1      2.444      3.627
REMARK  5 active torsions:
REMARK  status: ('A' for Active; 'I' for Inactive)
REMARK    1  A    between atoms: C_6  and  C_7 
REMARK    2  A    between atoms: C_7  and  O_8 
REMARK    3  A    between atoms: O_8  and  C_9 
REMARK       I    between atoms: C_9  and  N_10 
REMARK    4  A    between atoms: C_24  and  O_25 
REMARK    5  A    between atoms: C_24  and  O_26 
ROOT
ATOM      1  N           0     134.418 134.798 147.207  0.00  0.00    -0.235 N 
ATOM      2  H           0     133.580 135.277 147.114  0.00  0.00     0.174 HD
ATOM      3  H           0     135.053 135.061 147.892  0.00  0.00     0.174 HD
ATOM      4  C           0     134.690 133.798 146.417  0.00  0.00     0.672 C 
ATOM      5  N           0     133.814 133.382 145.430  0.00  0.00    -0.218 N 
ATOM      6  C           0     134.366 132.754 144.232  0.00  0.00     0.151 C 
ATOM      7  C           0     135.320 131.621 144.557  0.00  0.00     0.180 C 
ATOM      8  N           0     134.540 130.424 144.937  0.00  0.00    -0.216 N 
ATOM      9  C           0     135.194 129.818 145.983  0.00  0.00     0.670 C 
ATOM     10  N           0     135.013 128.577 146.338  0.00  0.00    -0.235 N 
ATOM     11  H           0     134.383 128.020 145.854  0.00  0.00     0.174 HD
ATOM     12  H           0     135.507 128.210 147.087  0.00  0.00     0.174 HD
ATOM     13  C           0     136.204 131.879 145.765  0.00  0.00     0.217 C 
ATOM     14  N           0     136.061 130.681 146.606  0.00  0.00    -0.191 N 
ATOM     15  N           0     135.865 133.093 146.508  0.00  0.00    -0.179 N 
ATOM     16  C           0     137.046 133.435 147.315  0.00  0.00     0.106 C 
ATOM     17  C           0     136.906 132.850 148.722  0.00  0.00     0.033 C 
ATOM     18  C           0     138.266 132.812 146.603  0.00  0.00     0.098 C 
ATOM     19  C           0     137.682 132.072 145.368  0.00  0.00     0.210 C 
ATOM     20  H           0     132.857 133.504 145.531  0.00  0.00     0.178 HD
ATOM     21  H           0     133.717 130.121 144.523  0.00  0.00     0.178 HD
ATOM     22  H           0     136.505 130.525 147.454  0.00  0.00     0.180 HD
ENDROOT
BRANCH   6  23
ATOM     23  C           0     135.116 133.813 143.421  0.00  0.00     0.208 C 
BRANCH  23  24
ATOM     24  O           0     134.163 134.742 142.840  0.00  0.00    -0.302 OA
BRANCH  24  25
ATOM     25  C           0     134.089 136.006 143.299  0.00  0.00     0.358 C 
ATOM     26  N           0     134.496 137.030 142.524  0.00  0.00    -0.346 N 
ATOM     27  H           0     134.844 136.857 141.635  0.00  0.00     0.161 HD
ATOM     28  H           0     134.442 137.940 142.856  0.00  0.00     0.161 HD
ATOM     29  O           0     133.654 136.222 144.413  0.00  0.00    -0.239 OA
ENDBRANCH  24  25
ENDBRANCH  23  24
ENDBRANCH   6  23
BRANCH  19  30
ATOM     30  O           0     138.332 130.814 145.176  0.00  0.00    -0.362 OA
ATOM     31  H           0     138.184 130.561 144.256  0.00  0.00     0.213 HD
ENDBRANCH  19  30
BRANCH  19  32
ATOM     32  O           0     137.786 132.882 144.195  0.00  0.00    -0.362 OA
ATOM     33  H           0     138.019 132.290 143.467  0.00  0.00     0.213 HD
ENDBRANCH  19  32
TORSDOF 5
ENDMDL
MODEL 7
REMARK VINA RESULT:      -6.9      8.564     10.911
REMARK  5 active torsions:
REMARK  status: ('A' for Active; 'I' for Inactive)
REMARK    1  A    between atoms: C_6  and  C_7 
REMARK    2  A    between atoms: C_7  and  O_8 
REMARK    3  A    between atoms: O_8  and  C_9 
REMARK       I    between atoms: C_9  and  N_10 
REMARK    4  A    between atoms: C_24  and  O_25 
REMARK    5  A    between atoms: C_24  and  O_26 
ROOT
ATOM      1  N           0     133.622 134.127 131.062  0.00  0.00    -0.235 N 
ATOM      2  H           0     133.711 134.740 130.315  0.00  0.00     0.174 HD
ATOM      3  H           0     134.208 133.357 131.129  0.00  0.00     0.174 HD
ATOM      4  C           0     132.722 134.343 131.980  0.00  0.00     0.672 C 
ATOM      5  N           0     131.869 135.432 131.932  0.00  0.00    -0.218 N 
ATOM      6  C           0     130.550 135.307 132.546  0.00  0.00     0.151 C 
ATOM      7  C           0     130.618 134.794 133.971  0.00  0.00     0.180 C 
ATOM      8  N           0     131.032 135.898 134.865  0.00  0.00    -0.216 N 
ATOM      9  C           0     131.901 135.378 135.793  0.00  0.00     0.670 C 
ATOM     10  N           0     132.184 135.948 136.930  0.00  0.00    -0.235 N 
ATOM     11  H           0     131.772 136.794 137.165  0.00  0.00     0.174 HD
ATOM     12  H           0     132.807 135.526 137.542  0.00  0.00     0.174 HD
ATOM     13  C           0     131.675 133.726 134.199  0.00  0.00     0.217 C 
ATOM     14  N           0     132.432 134.183 135.374  0.00  0.00    -0.191 N 
ATOM     15  N           0     132.557 133.502 133.053  0.00  0.00    -0.179 N 
ATOM     16  C           0     133.175 132.183 133.252  0.00  0.00     0.106 C 
ATOM     17  C           0     134.535 132.340 133.935  0.00  0.00     0.033 C 
ATOM     18  C           0     132.220 131.377 134.157  0.00  0.00     0.098 C 
ATOM     19  C           0     131.048 132.346 134.478  0.00  0.00     0.210 C 
ATOM     20  H           0     132.141 136.257 131.501  0.00  0.00     0.178 HD
ATOM     21  H           0     130.742 136.822 134.806  0.00  0.00     0.178 HD
ATOM     22  H           0     133.178 133.718 135.786  0.00  0.00     0.180 HD
ENDROOT
BRANCH   6  23
ATOM     23  C           0     129.708 134.338 131.714  0.00  0.00     0.208 C 
BRANCH  23  24
ATOM     24  O           0     128.375 134.244 132.282  0.00  0.00    -0.302 OA
BRANCH  24  25
ATOM     25  C           0     127.500 133.341 131.801  0.00  0.00     0.358 C 
ATOM     26  N           0     127.948 132.230 131.185  0.00  0.00    -0.346 N 
ATOM     27  H           0     128.902 132.081 131.087  0.00  0.00     0.161 HD
ATOM     28  H           0     127.316 131.579 130.838  0.00  0.00     0.161 HD
ATOM     29  O           0     126.305 133.529 131.923  0.00  0.00    -0.239 OA
ENDBRANCH  24  25
ENDBRANCH  23  24
ENDBRANCH   6  23
BRANCH  19  30
ATOM     30  O           0     130.652 132.226 135.846  0.00  0.00    -0.362 OA
ATOM     31  H           0     129.885 131.639 135.863  0.00  0.00     0.213 HD
ENDBRANCH  19  30
BRANCH  19  32
ATOM     32  O           0     129.942 132.110 133.605  0.00  0.00    -0.362 OA
ATOM     33  H           0     130.223 132.374 132.719  0.00  0.00     0.213 HD
ENDBRANCH  19  32
TORSDOF 5
ENDMDL
MODEL 8
REMARK VINA RESULT:      -6.8      5.446     10.009
REMARK  5 active torsions:
REMARK  status: ('A' for Active; 'I' for Inactive)
REMARK    1  A    between atoms: C_6  and  C_7 
REMARK    2  A    between atoms: C_7  and  O_8 
REMARK    3  A    between atoms: O_8  and  C_9 
REMARK       I    between atoms: C_9  and  N_10 
REMARK    4  A    between atoms: C_24  and  O_25 
REMARK    5  A    between atoms: C_24  and  O_26 
ROOT
ATOM      1  N           0     130.342 132.796 136.371  0.00  0.00    -0.235 N 
ATOM      2  H           0     129.764 133.157 137.062  0.00  0.00     0.174 HD
ATOM      3  H           0     130.275 131.861 136.123  0.00  0.00     0.174 HD
ATOM      4  C           0     131.202 133.570 135.771  0.00  0.00     0.672 C 
ATOM      5  N           0     131.328 134.912 136.085  0.00  0.00    -0.218 N 
ATOM      6  C           0     132.629 135.548 135.897  0.00  0.00     0.151 C 
ATOM      7  C           0     133.201 135.308 134.514  0.00  0.00     0.180 C 
ATOM      8  N           0     132.522 136.198 133.547  0.00  0.00    -0.216 N 
ATOM      9  C           0     132.315 135.479 132.395  0.00  0.00     0.670 C 
ATOM     10  N           0     132.081 136.015 131.230  0.00  0.00    -0.235 N 
ATOM     11  H           0     132.043 136.980 131.138  0.00  0.00     0.174 HD
ATOM     12  H           0     131.943 135.449 130.455  0.00  0.00     0.174 HD
ATOM     13  C           0     132.943 133.914 133.968  0.00  0.00     0.217 C 
ATOM     14  N           0     132.388 134.127 132.622  0.00  0.00    -0.191 N 
ATOM     15  N           0     132.043 133.104 134.790  0.00  0.00    -0.179 N 
ATOM     16  C           0     132.267 131.704 134.402  0.00  0.00     0.106 C 
ATOM     17  C           0     131.247 131.286 133.341  0.00  0.00     0.033 C 
ATOM     18  C           0     133.695 131.626 133.821  0.00  0.00     0.098 C 
ATOM     19  C           0     134.237 133.081 133.879  0.00  0.00     0.210 C 
ATOM     20  H           0     130.571 135.417 136.420  0.00  0.00     0.178 HD
ATOM     21  H           0     132.269 137.123 133.699  0.00  0.00     0.178 HD
ATOM     22  H           0     132.121 133.433 132.000  0.00  0.00     0.180 HD
ENDROOT
BRANCH   6  23
ATOM     23  C           0     133.605 134.993 136.937  0.00  0.00     0.208 C 
BRANCH  23  24
ATOM     24  O           0     132.860 134.403 138.034  0.00  0.00    -0.302 OA
BRANCH  24  25
ATOM     25  C           0     133.050 134.843 139.292  0.00  0.00     0.358 C 
ATOM     26  N           0     133.541 136.080 139.506  0.00  0.00    -0.346 N 
ATOM     27  H           0     133.758 136.653 138.753  0.00  0.00     0.161 HD
ATOM     28  H           0     133.679 136.397 140.413  0.00  0.00     0.161 HD
ATOM     29  O           0     132.779 134.126 140.235  0.00  0.00    -0.239 OA
ENDBRANCH  24  25
ENDBRANCH  23  24
ENDBRANCH   6  23
BRANCH  19  30
ATOM     30  O           0     134.972 133.395 132.694  0.00  0.00    -0.362 OA
ATOM     31  H           0     134.398 133.947 132.148  0.00  0.00     0.213 HD
ENDBRANCH  19  30
BRANCH  19  32
ATOM     32  O           0     135.042 133.276 135.043  0.00  0.00    -0.362 OA
ATOM     33  H           0     135.010 134.220 135.250  0.00  0.00     0.213 HD
ENDBRANCH  19  32
TORSDOF 5
ENDMDL
MODEL 9
REMARK VINA RESULT:      -6.7      7.773     10.286
REMARK  5 active torsions:
REMARK  status: ('A' for Active; 'I' for Inactive)
REMARK    1  A    between atoms: C_6  and  C_7 
REMARK    2  A    between atoms: C_7  and  O_8 
REMARK    3  A    between atoms: O_8  and  C_9 
REMARK       I    between atoms: C_9  and  N_10 
REMARK    4  A    between atoms: C_24  and  O_25 
REMARK    5  A    between atoms: C_24  and  O_26 
ROOT
ATOM      1  N           0     131.959 137.024 132.126  0.00  0.00    -0.235 N 
ATOM      2  H           0     131.205 137.633 132.094  0.00  0.00     0.174 HD
ATOM      3  H           0     132.578 136.979 131.380  0.00  0.00     0.174 HD
ATOM      4  C           0     132.145 136.270 133.173  0.00  0.00     0.672 C 
ATOM      5  N           0     131.293 136.303 134.263  0.00  0.00    -0.218 N 
ATOM      6  C           0     131.144 135.091 135.063  0.00  0.00     0.151 C 
ATOM      7  C           0     132.477 134.510 135.494  0.00  0.00     0.180 C 
ATOM      8  N           0     133.008 135.302 136.625  0.00  0.00    -0.216 N 
ATOM      9  C           0     134.363 135.434 136.438  0.00  0.00     0.670 C 
ATOM     10  N           0     135.205 135.745 137.384  0.00  0.00    -0.235 N 
ATOM     11  H           0     134.886 135.901 138.286  0.00  0.00     0.174 HD
ATOM     12  H           0     136.151 135.822 137.184  0.00  0.00     0.174 HD
ATOM     13  C           0     133.566 134.604 134.440  0.00  0.00     0.217 C 
ATOM     14  N           0     134.720 135.196 135.134  0.00  0.00    -0.191 N 
ATOM     15  N           0     133.195 135.390 133.262  0.00  0.00    -0.179 N 
ATOM     16  C           0     134.124 135.003 132.191  0.00  0.00     0.106 C 
ATOM     17  C           0     135.303 135.978 132.144  0.00  0.00     0.033 C 
ATOM     18  C           0     134.627 133.583 132.528  0.00  0.00     0.098 C 
ATOM     19  C           0     133.943 133.220 133.875  0.00  0.00     0.210 C 
ATOM     20  H           0     130.808 137.112 134.490  0.00  0.00     0.178 HD
ATOM     21  H           0     132.494 135.663 137.364  0.00  0.00     0.178 HD
ATOM     22  H           0     135.586 135.384 134.740  0.00  0.00     0.180 HD
ENDROOT
BRANCH   6  23
ATOM     23  C           0     130.394 134.043 134.238  0.00  0.00     0.208 C 
BRANCH  23  24
ATOM     24  O           0     129.202 134.642 133.664  0.00  0.00    -0.302 OA
BRANCH  24  25
ATOM     25  C           0     128.862 134.374 132.389  0.00  0.00     0.358 C 
ATOM     26  N           0     128.003 133.372 132.117  0.00  0.00    -0.346 N 
ATOM     27  H           0     127.631 132.842 132.840  0.00  0.00     0.161 HD
ATOM     28  H           0     127.758 133.179 131.198  0.00  0.00     0.161 HD
ATOM     29  O           0     129.328 135.037 131.484  0.00  0.00    -0.239 OA
ENDBRANCH  24  25
ENDBRANCH  23  24
ENDBRANCH   6  23
BRANCH  19  30
ATOM     30  O           0     134.857 132.541 134.740  0.00  0.00    -0.362 OA
ATOM     31  H           0     134.552 132.696 135.644  0.00  0.00     0.213 HD
ENDBRANCH  19  30
BRANCH  19  32
ATOM     32  O           0     132.772 132.431 133.654  0.00  0.00    -0.362 OA
ATOM     33  H           0     132.307 132.826 132.904  0.00  0.00     0.213 HD
ENDBRANCH  19  32
TORSDOF 5
ENDMDL
