# created with PyMOL 2.3.4
@<TRIPOS>MOLECULE
ligand_out_0001
33 35 1                 
SMALL
USER_CHARGES
@<TRIPOS>ATOM
1	   N	137.452	135.368	143.250	N.3	1	UNK0	-0.235	
2	   N	135.103	135.439	143.166	N.3	1	UNK0	-0.218	
3	   N	133.027	134.183	145.072	N.3	1	UNK0	-0.216	
4	   N	132.996	133.660	147.380	N.3	1	UNK0	-0.235	
5	   N	134.769	133.017	145.950	N.3	1	UNK0	-0.191	
6	   N	136.183	133.574	144.065	N.3	1	UNK0	-0.179	
7	   N	133.534	136.181	139.648	N.pl3	1	UNK0	-0.346	
8	   C	136.295	134.815	143.486	C.3	1	UNK0	0.672	
9	   C	133.946	134.605	142.851	C.3	1	UNK0	0.151	
10	   C	133.684	133.550	143.908	C.3	1	UNK0	0.180	
11	   C	133.563	133.623	146.206	C.3	1	UNK0	0.670	
12	   C	134.941	132.929	144.492	C.3	1	UNK0	0.217	
13	   C	137.265	132.611	144.319	C.3	1	UNK0	0.106	
14	   C	137.900	132.887	145.684	C.3	1	UNK0	0.033	
15	   C	136.622	131.208	144.310	C.3	1	UNK0	0.098	
16	   C	135.107	131.456	144.069	C.3	1	UNK0	0.210	
17	   C	134.190	133.910	141.510	C.2	1	UNK0	0.208	
18	   C	133.178	134.886	139.535	C.2	1	UNK0	0.358	
19	   O	133.049	134.125	140.638	O.2	1	UNK0	-0.302	
20	   O	132.974	134.405	138.438	O.co2	1	UNK0	-0.239	
21	   O	134.315	130.592	144.887	O.2	1	UNK0	-0.362	
22	   O	134.779	131.290	142.688	O.2	1	UNK0	-0.362	
23	   H	137.495	136.245	142.838	 H	1	UNK0	0.174	
24	   H	138.269	134.905	143.492	 H	1	UNK0	0.174	
25	   H	132.142	134.106	147.492	 H	1	UNK0	0.174	
26	   H	133.429	133.244	148.141	 H	1	UNK0	0.174	
27	   H	135.037	136.407	143.153	 H	1	UNK0	0.178	
28	   H	132.341	134.869	145.041	 H	1	UNK0	0.178	
29	   H	135.397	132.700	146.618	 H	1	UNK0	0.180	
30	   H	133.696	136.565	140.524	 H	1	UNK0	0.161	
31	   H	133.627	136.729	138.853	 H	1	UNK0	0.161	
32	   H	133.441	130.545	144.478	 H	1	UNK0	0.213	
33	   H	133.816	131.234	142.634	 H	1	UNK0	0.213	
@<TRIPOS>BOND
1 1 8 1
2 1 23 1
3 1 24 1
4 2 9 1
5 2 27 1
6 3 11 1
7 3 28 1
8 4 25 1
9 4 26 1
10 5 29 1
11 6 13 1
12 7 30 1
13 7 31 1
14 2 8 1
15 6 8 1
16 9 10 1
17 9 17 1
18 3 10 1
19 10 12 1
20 4 11 1
21 5 11 1
22 5 12 1
23 6 12 1
24 12 16 1
25 13 14 1
26 13 15 1
27 15 16 1
28 16 21 2
29 16 22 2
30 17 19 2
31 7 18 1
32 18 20 2
33 18 19 2
34 21 32 1
35 22 33 1
@<TRIPOS>SUBSTRUCTURE
1	UNK0	1	GROUP	1 ****	UNK
