# created with PyMOL 2.3.4
@<TRIPOS>MOLECULE
ligand_out_0001
30 32 1                 
SMALL
USER_CHARGES
@<TRIPOS>ATOM
1	   N	137.802	134.902	142.962	N.3	1	UNK0	-0.235	
2	   N	135.476	135.253	142.957	N.3	1	UNK0	-0.218	
3	   N	133.507	135.267	145.327	N.3	1	UNK0	-0.216	
4	   N	133.671	135.808	147.625	N.3	1	UNK0	-0.235	
5	   N	135.191	134.351	146.547	N.3	1	UNK0	-0.191	
6	   N	136.440	133.837	144.540	N.3	1	UNK0	-0.183	
7	   C	136.623	134.673	143.469	C.3	1	UNK0	0.672	
8	   C	134.213	134.536	143.107	C.3	1	UNK0	0.151	
9	   C	133.953	134.100	144.537	C.3	1	UNK0	0.180	
10	   C	134.097	135.180	146.564	C.3	1	UNK0	0.670	
11	   C	135.193	133.614	145.273	C.3	1	UNK0	0.217	
12	   C	137.424	132.933	145.162	C.3	1	UNK0	0.150	
13	   C	136.622	131.646	145.468	C.3	1	UNK0	0.093	
14	   C	135.143	132.101	145.543	C.3	1	UNK0	0.209	
15	   C	134.239	133.297	142.212	C.2	1	UNK0	0.206	
16	   C	133.011	134.104	140.289	C.2	1	UNK0	0.254	
17	   C	131.835	133.162	140.253	C.3	1	UNK0	0.126	
18	   O	134.177	133.704	140.820	O.2	1	UNK0	-0.320	
19	   O	132.904	135.220	139.837	O.co2	1	UNK0	-0.266	
20	   O	134.606	131.839	146.840	O.2	1	UNK0	-0.362	
21	   O	134.368	131.442	144.539	O.2	1	UNK0	-0.362	
22	   H	137.896	135.496	142.202	 H	1	UNK0	0.174	
23	   H	138.586	134.482	143.349	 H	1	UNK0	0.174	
24	   H	132.890	136.381	147.568	 H	1	UNK0	0.174	
25	   H	134.134	135.702	148.470	 H	1	UNK0	0.174	
26	   H	135.510	136.115	142.512	 H	1	UNK0	0.178	
27	   H	132.906	135.967	145.027	 H	1	UNK0	0.178	
28	   H	135.848	134.263	147.255	 H	1	UNK0	0.180	
29	   H	135.027	131.030	147.160	 H	1	UNK0	0.213	
30	   H	134.722	131.723	143.684	 H	1	UNK0	0.213	
@<TRIPOS>BOND
1 1 7 1
2 1 22 1
3 1 23 1
4 2 8 1
5 2 26 1
6 3 10 1
7 3 27 1
8 4 24 1
9 4 25 1
10 5 28 1
11 6 12 1
12 2 7 1
13 6 7 1
14 8 9 1
15 8 15 1
16 3 9 1
17 9 11 1
18 4 10 1
19 5 10 1
20 5 11 1
21 6 11 1
22 11 14 1
23 12 13 1
24 13 14 1
25 14 20 2
26 14 21 2
27 15 18 2
28 16 17 1
29 16 19 2
30 16 18 2
31 20 29 1
32 21 30 1
@<TRIPOS>SUBSTRUCTURE
1	UNK0	1	GROUP	1 ****	UNK
