# created with PyMOL 2.3.4
@<TRIPOS>MOLECULE
ligand_out_0001
32 35 1                 
SMALL
USER_CHARGES
@<TRIPOS>ATOM
1	   N	133.405	134.883	140.148	N.3	1	UNK0	-0.235	
2	   N	133.221	132.986	141.521	N.pl3	1	UNK0	-0.200	
3	   N	134.276	134.937	142.333	N.3	1	UNK0	-0.211	
4	   C	133.624	134.292	141.289	C.3	1	UNK0	0.670	
5	   C	134.151	132.096	142.237	C.2	1	UNK0	0.244	
6	   C	134.636	132.818	143.497	C.3	1	UNK0	0.101	
7	   C	135.253	134.163	143.089	C.3	1	UNK0	0.119	
8	   C	136.481	133.873	142.216	C.2	1	UNK0	0.243	
9	   C	135.692	131.982	144.218	C.2	1	UNK0	0.177	
10	   C	137.435	133.030	143.071	C.3	1	UNK0	0.311	
11	   C	136.120	132.725	145.492	C.3	1	UNK0	0.134	
12	   C	136.762	134.055	145.056	C.2	1	UNK0	0.198	
13	   C	135.721	134.907	144.339	C.2	1	UNK0	0.182	
14	   C	137.129	131.880	146.271	C.2	1	UNK0	0.207	
15	   O	136.838	131.786	143.397	O.2	1	UNK0	-0.322	
16	   O	137.864	133.772	144.199	O.2	1	UNK0	-0.319	
17	   O	134.976	132.988	146.307	O.2	1	UNK0	-0.382	
18	   O	137.054	130.523	145.831	O.2	1	UNK0	-0.398	
19	   O	136.300	136.157	143.963	O.2	1	UNK0	-0.390	
20	   O	133.477	130.889	142.603	O.2	1	UNK0	-0.376	
21	   O	138.598	132.761	142.286	O.2	1	UNK0	-0.341	
22	   O	136.093	133.144	141.050	O.2	1	UNK0	-0.385	
23	   H	132.951	134.407	139.435	 H	1	UNK0	0.174	
24	   H	133.694	135.799	140.014	 H	1	UNK0	0.174	
25	   H	132.355	132.669	141.223	 H	1	UNK0	0.180	
26	   H	134.084	135.863	142.550	 H	1	UNK0	0.178	
27	   H	135.306	133.271	147.170	 H	1	UNK0	0.210	
28	   H	136.120	130.337	145.658	 H	1	UNK0	0.209	
29	   H	136.559	136.602	144.782	 H	1	UNK0	0.210	
30	   H	134.007	130.474	143.300	 H	1	UNK0	0.212	
31	   H	139.317	132.576	142.906	 H	1	UNK0	0.215	
32	   H	136.766	133.312	140.377	 H	1	UNK0	0.210	
@<TRIPOS>BOND
1 1 4 1
2 1 23 1
3 1 24 1
4 2 5 1
5 2 25 1
6 3 26 1
7 2 4 1
8 3 4 1
9 5 6 1
10 5 20 2
11 6 7 1
12 6 9 1
13 3 7 1
14 7 8 1
15 7 13 1
16 8 10 1
17 8 22 2
18 9 11 1
19 9 15 2
20 10 16 2
21 10 21 2
22 11 12 1
23 11 14 1
24 11 17 2
25 12 13 1
26 13 19 2
27 14 18 2
28 10 15 2
29 12 16 2
30 17 27 1
31 18 28 1
32 19 29 1
33 20 30 1
34 21 31 1
35 22 32 1
@<TRIPOS>SUBSTRUCTURE
1	UNK0	1	GROUP	1 ****	UNK
