MODEL 1
REMARK VINA RESULT:      -7.9      0.000      0.000
REMARK  5 active torsions:
REMARK  status: ('A' for Active; 'I' for Inactive)
REMARK    1  A    between atoms: C_6  and  C_7 
REMARK    2  A    between atoms: C_7  and  O_8 
REMARK    3  A    between atoms: O_8  and  C_9 
REMARK       I    between atoms: C_9  and  N_10 
REMARK    4  A    between atoms: C_23  and  O_24 
REMARK    5  A    between atoms: C_23  and  O_25 
ROOT
ATOM      1  N           0     135.059 136.789 143.166  0.00  0.00    -0.235 N 
ATOM      2  H           0     134.278 137.308 142.920  0.00  0.00     0.174 HD
ATOM      3  H           0     135.903 137.235 143.342  0.00  0.00     0.174 HD
ATOM      4  C           0     134.976 135.491 143.265  0.00  0.00     0.672 C 
ATOM      5  N           0     133.796 134.809 143.029  0.00  0.00    -0.218 N 
ATOM      6  C           0     133.877 133.433 142.545  0.00  0.00     0.151 C 
ATOM      7  C           0     134.789 132.569 143.394  0.00  0.00     0.180 C 
ATOM      8  N           0     134.088 132.200 144.641  0.00  0.00    -0.216 N 
ATOM      9  C           0     135.004 132.256 145.663  0.00  0.00     0.670 C 
ATOM     10  N           0     134.854 131.663 146.815  0.00  0.00    -0.235 N 
ATOM     11  H           0     134.055 131.141 146.990  0.00  0.00     0.174 HD
ATOM     12  H           0     135.541 131.743 147.494  0.00  0.00     0.174 HD
ATOM     13  C           0     136.045 133.277 143.875  0.00  0.00     0.217 C 
ATOM     14  N           0     136.096 133.014 145.323  0.00  0.00    -0.191 N 
ATOM     15  N           0     136.054 134.715 143.604  0.00  0.00    -0.183 N 
ATOM     16  C           0     137.465 135.125 143.715  0.00  0.00     0.150 C 
ATOM     17  C           0     138.256 133.950 143.089  0.00  0.00     0.093 C 
ATOM     18  C           0     137.312 132.725 143.199  0.00  0.00     0.209 C 
ATOM     19  H           0     132.937 135.233 143.182  0.00  0.00     0.178 HD
ATOM     20  H           0     133.151 131.961 144.724  0.00  0.00     0.178 HD
ATOM     21  H           0     136.786 133.321 145.932  0.00  0.00     0.180 HD
ENDROOT
BRANCH   6  22
ATOM     22  C           0     134.403 133.446 141.109  0.00  0.00     0.208 C 
BRANCH  22  23
ATOM     23  O           0     133.316 133.746 140.197  0.00  0.00    -0.302 OA
BRANCH  23  24
ATOM     24  C           0     133.409 134.798 139.361  0.00  0.00     0.358 C 
ATOM     25  N           0     133.544 136.044 139.858  0.00  0.00    -0.346 N 
ATOM     26  H           0     133.574 136.183 140.818  0.00  0.00     0.161 HD
ATOM     27  H           0     133.610 136.802 139.256  0.00  0.00     0.161 HD
ATOM     28  O           0     133.371 134.624 138.159  0.00  0.00    -0.239 OA
ENDBRANCH  23  24
ENDBRANCH  22  23
ENDBRANCH   6  22
BRANCH  18  29
ATOM     29  O           0     137.909 131.707 144.004  0.00  0.00    -0.362 OA
ATOM     30  H           0     138.724 131.439 143.556  0.00  0.00     0.213 HD
ENDBRANCH  18  29
BRANCH  18  31
ATOM     31  O           0     137.000 132.218 141.900  0.00  0.00    -0.362 OA
ATOM     32  H           0     136.038 132.127 141.859  0.00  0.00     0.213 HD
ENDBRANCH  18  31
TORSDOF 5
ENDMDL
MODEL 2
REMARK VINA RESULT:      -7.5      1.919      5.625
REMARK  5 active torsions:
REMARK  status: ('A' for Active; 'I' for Inactive)
REMARK    1  A    between atoms: C_6  and  C_7 
REMARK    2  A    between atoms: C_7  and  O_8 
REMARK    3  A    between atoms: O_8  and  C_9 
REMARK       I    between atoms: C_9  and  N_10 
REMARK    4  A    between atoms: C_23  and  O_24 
REMARK    5  A    between atoms: C_23  and  O_25 
ROOT
ATOM      1  N           0     134.753 131.882 146.528  0.00  0.00    -0.235 N 
ATOM      2  H           0     134.985 131.931 147.469  0.00  0.00     0.174 HD
ATOM      3  H           0     134.084 131.247 146.226  0.00  0.00     0.174 HD
ATOM      4  C           0     135.336 132.672 145.671  0.00  0.00     0.672 C 
ATOM      5  N           0     136.293 133.597 146.053  0.00  0.00    -0.218 N 
ATOM      6  C           0     137.314 133.978 145.081  0.00  0.00     0.151 C 
ATOM      7  C           0     136.725 134.394 143.748  0.00  0.00     0.180 C 
ATOM      8  N           0     136.176 135.762 143.864  0.00  0.00    -0.216 N 
ATOM      9  C           0     135.001 135.799 143.155  0.00  0.00     0.670 C 
ATOM     10  N           0     134.433 136.894 142.734  0.00  0.00    -0.235 N 
ATOM     11  H           0     134.844 137.754 142.917  0.00  0.00     0.174 HD
ATOM     12  H           0     133.602 136.849 142.236  0.00  0.00     0.174 HD
ATOM     13  C           0     135.534 133.559 143.306  0.00  0.00     0.217 C 
ATOM     14  N           0     134.497 134.540 142.944  0.00  0.00    -0.191 N 
ATOM     15  N           0     135.047 132.636 144.332  0.00  0.00    -0.183 N 
ATOM     16  C           0     134.236 131.640 143.607  0.00  0.00     0.150 C 
ATOM     17  C           0     135.010 131.403 142.288  0.00  0.00     0.093 C 
ATOM     18  C           0     135.868 132.679 142.089  0.00  0.00     0.209 C 
ATOM     19  H           0     136.284 133.983 146.942  0.00  0.00     0.178 HD
ATOM     20  H           0     136.574 136.500 144.353  0.00  0.00     0.178 HD
ATOM     21  H           0     133.610 134.331 142.611  0.00  0.00     0.180 HD
ENDROOT
BRANCH   6  22
ATOM     22  C           0     138.249 132.788 144.857  0.00  0.00     0.208 C 
BRANCH  22  23
ATOM     23  O           0     138.764 132.329 146.134  0.00  0.00    -0.302 OA
BRANCH  23  24
ATOM     24  C           0     138.670 131.028 146.470  0.00  0.00     0.358 C 
ATOM     25  N           0     139.785 130.281 146.588  0.00  0.00    -0.346 N 
ATOM     26  H           0     140.656 130.679 146.431  0.00  0.00     0.161 HD
ATOM     27  H           0     139.718 129.343 146.829  0.00  0.00     0.161 HD
ATOM     28  O           0     137.580 130.529 146.667  0.00  0.00    -0.239 OA
ENDBRANCH  23  24
ENDBRANCH  22  23
ENDBRANCH   6  22
BRANCH  18  29
ATOM     29  O           0     135.505 133.339 140.876  0.00  0.00    -0.362 OA
ATOM     30  H           0     134.539 133.311 140.821  0.00  0.00     0.213 HD
ENDBRANCH  18  29
BRANCH  18  31
ATOM     31  O           0     137.258 132.349 142.082  0.00  0.00    -0.362 OA
ATOM     32  H           0     137.318 131.393 141.942  0.00  0.00     0.213 HD
ENDBRANCH  18  31
TORSDOF 5
ENDMDL
MODEL 3
REMARK VINA RESULT:      -6.8      5.317      9.822
REMARK  5 active torsions:
REMARK  status: ('A' for Active; 'I' for Inactive)
REMARK    1  A    between atoms: C_6  and  C_7 
REMARK    2  A    between atoms: C_7  and  O_8 
REMARK    3  A    between atoms: O_8  and  C_9 
REMARK       I    between atoms: C_9  and  N_10 
REMARK    4  A    between atoms: C_23  and  O_24 
REMARK    5  A    between atoms: C_23  and  O_25 
ROOT
ATOM      1  N           0     131.408 132.191 134.947  0.00  0.00    -0.235 N 
ATOM      2  H           0     130.803 131.845 135.622  0.00  0.00     0.174 HD
ATOM      3  H           0     131.805 131.590 134.297  0.00  0.00     0.174 HD
ATOM      4  C           0     131.685 133.465 134.911  0.00  0.00     0.672 C 
ATOM      5  N           0     131.141 134.363 135.812  0.00  0.00    -0.218 N 
ATOM      6  C           0     131.904 135.565 136.138  0.00  0.00     0.151 C 
ATOM      7  C           0     132.363 136.316 134.903  0.00  0.00     0.180 C 
ATOM      8  N           0     131.222 137.066 134.338  0.00  0.00    -0.216 N 
ATOM      9  C           0     131.301 136.972 132.970  0.00  0.00     0.670 C 
ATOM     10  N           0     130.701 137.782 132.144  0.00  0.00    -0.235 N 
ATOM     11  H           0     130.157 138.508 132.487  0.00  0.00     0.174 HD
ATOM     12  H           0     130.800 137.660 131.187  0.00  0.00     0.174 HD
ATOM     13  C           0     132.813 135.420 133.761  0.00  0.00     0.217 C 
ATOM     14  N           0     132.091 135.920 132.580  0.00  0.00    -0.191 N 
ATOM     15  N           0     132.538 134.000 133.981  0.00  0.00    -0.183 N 
ATOM     16  C           0     133.413 133.281 133.036  0.00  0.00     0.150 C 
ATOM     17  C           0     134.732 134.091 133.044  0.00  0.00     0.093 C 
ATOM     18  C           0     134.331 135.510 133.523  0.00  0.00     0.209 C 
ATOM     19  H           0     130.275 134.199 136.217  0.00  0.00     0.178 HD
ATOM     20  H           0     130.541 137.540 134.841  0.00  0.00     0.178 HD
ATOM     21  H           0     132.163 135.567 131.679  0.00  0.00     0.180 HD
ENDROOT
BRANCH   6  22
ATOM     22  C           0     133.132 135.163 136.956  0.00  0.00     0.208 C 
BRANCH  22  23
ATOM     23  O           0     132.710 134.426 138.133  0.00  0.00    -0.302 OA
BRANCH  23  24
ATOM     24  C           0     133.054 134.862 139.360  0.00  0.00     0.358 C 
ATOM     25  N           0     133.600 136.084 139.513  0.00  0.00    -0.346 N 
ATOM     26  H           0     133.746 136.651 138.738  0.00  0.00     0.161 HD
ATOM     27  H           0     133.848 136.398 140.397  0.00  0.00     0.161 HD
ATOM     28  O           0     132.871 134.152 140.330  0.00  0.00    -0.239 OA
ENDBRANCH  23  24
ENDBRANCH  22  23
ENDBRANCH   6  22
BRANCH  18  29
ATOM     29  O           0     134.625 136.477 132.514  0.00  0.00    -0.362 OA
ATOM     30  H           0     134.348 136.094 131.670  0.00  0.00     0.213 HD
ENDBRANCH  18  29
BRANCH  18  31
ATOM     31  O           0     135.006 135.834 134.740  0.00  0.00    -0.362 OA
ATOM     32  H           0     134.323 136.060 135.387  0.00  0.00     0.213 HD
ENDBRANCH  18  31
TORSDOF 5
ENDMDL
MODEL 4
REMARK VINA RESULT:      -6.8      2.891      4.761
REMARK  5 active torsions:
REMARK  status: ('A' for Active; 'I' for Inactive)
REMARK    1  A    between atoms: C_6  and  C_7 
REMARK    2  A    between atoms: C_7  and  O_8 
REMARK    3  A    between atoms: O_8  and  C_9 
REMARK       I    between atoms: C_9  and  N_10 
REMARK    4  A    between atoms: C_23  and  O_24 
REMARK    5  A    between atoms: C_23  and  O_25 
ROOT
ATOM      1  N           0     139.641 130.601 145.976  0.00  0.00    -0.235 N 
ATOM      2  H           0     140.393 130.756 145.384  0.00  0.00     0.174 HD
ATOM      3  H           0     139.674 129.877 146.623  0.00  0.00     0.174 HD
ATOM      4  C           0     138.588 131.365 145.908  0.00  0.00     0.672 C 
ATOM      5  N           0     138.494 132.412 145.007  0.00  0.00    -0.218 N 
ATOM      6  C           0     137.169 132.805 144.538  0.00  0.00     0.151 C 
ATOM      7  C           0     136.193 133.039 145.675  0.00  0.00     0.180 C 
ATOM      8  N           0     136.477 134.350 146.296  0.00  0.00    -0.216 N 
ATOM      9  C           0     136.329 134.205 147.654  0.00  0.00     0.670 C 
ATOM     10  N           0     136.143 135.196 148.481  0.00  0.00    -0.235 N 
ATOM     11  H           0     136.103 136.105 148.146  0.00  0.00     0.174 HD
ATOM     12  H           0     136.046 135.023 149.430  0.00  0.00     0.174 HD
ATOM     13  C           0     136.328 132.053 146.823  0.00  0.00     0.217 C 
ATOM     14  N           0     136.399 132.888 148.034  0.00  0.00    -0.191 N 
ATOM     15  N           0     137.498 131.181 146.718  0.00  0.00    -0.183 N 
ATOM     16  C           0     137.223 130.048 147.620  0.00  0.00     0.150 C 
ATOM     17  C           0     135.710 129.773 147.439  0.00  0.00     0.093 C 
ATOM     18  C           0     135.119 131.105 146.912  0.00  0.00     0.209 C 
ATOM     19  H           0     139.289 132.873 144.696  0.00  0.00     0.178 HD
ATOM     20  H           0     136.723 135.165 145.831  0.00  0.00     0.178 HD
ATOM     21  H           0     136.479 132.563 148.944  0.00  0.00     0.180 HD
ENDROOT
BRANCH   6  22
ATOM     22  C           0     136.617 131.700 143.634  0.00  0.00     0.208 C 
BRANCH  22  23
ATOM     23  O           0     135.298 132.076 143.160  0.00  0.00    -0.302 OA
BRANCH  23  24
ATOM     24  C           0     135.162 133.074 142.266  0.00  0.00     0.358 C 
ATOM     25  N           0     135.887 133.064 141.130  0.00  0.00    -0.346 N 
ATOM     26  H           0     136.507 132.338 140.956  0.00  0.00     0.161 HD
ATOM     27  H           0     135.790 133.784 140.486  0.00  0.00     0.161 HD
ATOM     28  O           0     134.386 133.982 142.484  0.00  0.00    -0.239 OA
ENDBRANCH  23  24
ENDBRANCH  22  23
ENDBRANCH   6  22
BRANCH  18  29
ATOM     29  O           0     134.147 131.614 147.827  0.00  0.00    -0.362 OA
ATOM     30  H           0     133.320 131.146 147.646  0.00  0.00     0.213 HD
ENDBRANCH  18  29
BRANCH  18  31
ATOM     31  O           0     134.539 130.917 145.620  0.00  0.00    -0.362 OA
ATOM     32  H           0     134.218 130.005 145.588  0.00  0.00     0.213 HD
ENDBRANCH  18  31
TORSDOF 5
ENDMDL
MODEL 5
REMARK VINA RESULT:      -6.7      2.945      4.325
REMARK  5 active torsions:
REMARK  status: ('A' for Active; 'I' for Inactive)
REMARK    1  A    between atoms: C_6  and  C_7 
REMARK    2  A    between atoms: C_7  and  O_8 
REMARK    3  A    between atoms: O_8  and  C_9 
REMARK       I    between atoms: C_9  and  N_10 
REMARK    4  A    between atoms: C_23  and  O_24 
REMARK    5  A    between atoms: C_23  and  O_25 
ROOT
ATOM      1  N           0     136.002 134.667 147.039  0.00  0.00    -0.235 N 
ATOM      2  H           0     135.504 135.365 146.587  0.00  0.00     0.174 HD
ATOM      3  H           0     136.508 134.874 147.841  0.00  0.00     0.174 HD
ATOM      4  C           0     135.990 133.450 146.573  0.00  0.00     0.672 C 
ATOM      5  N           0     135.280 133.103 145.436  0.00  0.00    -0.218 N 
ATOM      6  C           0     135.765 131.986 144.632  0.00  0.00     0.151 C 
ATOM      7  C           0     136.021 130.740 145.457  0.00  0.00     0.180 C 
ATOM      8  N           0     134.730 130.091 145.769  0.00  0.00    -0.216 N 
ATOM      9  C           0     134.798 129.634 147.063  0.00  0.00     0.670 C 
ATOM     10  N           0     134.015 128.717 147.558  0.00  0.00    -0.235 N 
ATOM     11  H           0     133.331 128.312 147.002  0.00  0.00     0.174 HD
ATOM     12  H           0     134.118 128.439 148.482  0.00  0.00     0.174 HD
ATOM     13  C           0     136.633 131.012 146.821  0.00  0.00     0.217 C 
ATOM     14  N           0     135.792 130.263 147.770  0.00  0.00    -0.191 N 
ATOM     15  N           0     136.683 132.431 147.173  0.00  0.00    -0.183 N 
ATOM     16  C           0     137.674 132.529 148.261  0.00  0.00     0.150 C 
ATOM     17  C           0     138.781 131.523 147.861  0.00  0.00     0.093 C 
ATOM     18  C           0     138.087 130.517 146.908  0.00  0.00     0.209 C 
ATOM     19  H           0     134.481 133.590 145.182  0.00  0.00     0.178 HD
ATOM     20  H           0     133.972 130.003 145.170  0.00  0.00     0.178 HD
ATOM     21  H           0     135.921 130.219 148.730  0.00  0.00     0.180 HD
ENDROOT
BRANCH   6  22
ATOM     22  C           0     137.070 132.400 143.948  0.00  0.00     0.208 C 
BRANCH  22  23
ATOM     23  O           0     136.807 133.485 143.020  0.00  0.00    -0.302 OA
BRANCH  23  24
ATOM     24  C           0     137.425 134.671 143.179  0.00  0.00     0.358 C 
ATOM     25  N           0     136.724 135.747 143.587  0.00  0.00    -0.346 N 
ATOM     26  H           0     135.774 135.668 143.766  0.00  0.00     0.161 HD
ATOM     27  H           0     137.169 136.602 143.700  0.00  0.00     0.161 HD
ATOM     28  O           0     138.615 134.770 142.954  0.00  0.00    -0.239 OA
ENDBRANCH  23  24
ENDBRANCH  22  23
ENDBRANCH   6  22
BRANCH  18  29
ATOM     29  O           0     138.138 129.198 147.454  0.00  0.00    -0.362 OA
ATOM     30  H           0     139.073 128.985 147.583  0.00  0.00     0.213 HD
ENDBRANCH  18  29
BRANCH  18  31
ATOM     31  O           0     138.700 130.549 145.618  0.00  0.00    -0.362 OA
ATOM     32  H           0     138.890 129.631 145.377  0.00  0.00     0.213 HD
ENDBRANCH  18  31
TORSDOF 5
ENDMDL
MODEL 6
REMARK VINA RESULT:      -6.6      1.536      1.693
REMARK  5 active torsions:
REMARK  status: ('A' for Active; 'I' for Inactive)
REMARK    1  A    between atoms: C_6  and  C_7 
REMARK    2  A    between atoms: C_7  and  O_8 
REMARK    3  A    between atoms: O_8  and  C_9 
REMARK       I    between atoms: C_9  and  N_10 
REMARK    4  A    between atoms: C_23  and  O_24 
REMARK    5  A    between atoms: C_23  and  O_25 
ROOT
ATOM      1  N           0     135.957 136.000 143.348  0.00  0.00    -0.235 N 
ATOM      2  H           0     135.244 136.551 142.990  0.00  0.00     0.174 HD
ATOM      3  H           0     136.871 136.328 143.347  0.00  0.00     0.174 HD
ATOM      4  C           0     135.690 134.820 143.833  0.00  0.00     0.672 C 
ATOM      5  N           0     134.403 134.309 143.861  0.00  0.00    -0.218 N 
ATOM      6  C           0     134.233 132.860 143.808  0.00  0.00     0.151 C 
ATOM      7  C           0     135.078 132.135 144.837  0.00  0.00     0.180 C 
ATOM      8  N           0     134.444 132.266 146.166  0.00  0.00    -0.216 N 
ATOM      9  C           0     135.446 132.457 147.086  0.00  0.00     0.670 C 
ATOM     10  N           0     135.313 132.256 148.366  0.00  0.00    -0.235 N 
ATOM     11  H           0     134.464 131.950 148.723  0.00  0.00     0.174 HD
ATOM     12  H           0     136.063 132.410 148.962  0.00  0.00     0.174 HD
ATOM     13  C           0     136.464 132.727 145.032  0.00  0.00     0.217 C 
ATOM     14  N           0     136.605 132.888 146.489  0.00  0.00    -0.191 N 
ATOM     15  N           0     136.664 134.002 144.343  0.00  0.00    -0.183 N 
ATOM     16  C           0     138.125 134.180 144.268  0.00  0.00     0.150 C 
ATOM     17  C           0     138.671 132.758 143.990  0.00  0.00     0.093 C 
ATOM     18  C           0     137.567 131.797 144.500  0.00  0.00     0.209 C 
ATOM     19  H           0     133.636 134.899 143.915  0.00  0.00     0.178 HD
ATOM     20  H           0     133.493 132.224 146.355  0.00  0.00     0.178 HD
ATOM     21  H           0     137.385 133.235 146.949  0.00  0.00     0.180 HD
ENDROOT
BRANCH   6  22
ATOM     22  C           0     134.624 132.368 142.413  0.00  0.00     0.208 C 
BRANCH  22  23
ATOM     23  O           0     133.434 132.247 141.591  0.00  0.00    -0.302 OA
BRANCH  23  24
ATOM     24  C           0     132.989 133.307 140.889  0.00  0.00     0.358 C 
ATOM     25  N           0     133.861 134.231 140.438  0.00  0.00    -0.346 N 
ATOM     26  H           0     134.809 134.133 140.620  0.00  0.00     0.161 HD
ATOM     27  H           0     133.540 134.995 139.934  0.00  0.00     0.161 HD
ATOM     28  O           0     131.802 133.429 140.662  0.00  0.00    -0.239 OA
ENDBRANCH  23  24
ENDBRANCH  22  23
ENDBRANCH   6  22
BRANCH  18  29
ATOM     29  O           0     138.075 130.968 145.546  0.00  0.00    -0.362 OA
ATOM     30  H           0     138.041 130.057 145.223  0.00  0.00     0.213 HD
ENDBRANCH  18  29
BRANCH  18  31
ATOM     31  O           0     137.067 130.997 143.426  0.00  0.00    -0.362 OA
ATOM     32  H           0     137.635 131.170 142.662  0.00  0.00     0.213 HD
ENDBRANCH  18  31
TORSDOF 5
ENDMDL
MODEL 7
REMARK VINA RESULT:      -6.3      7.473     10.167
REMARK  5 active torsions:
REMARK  status: ('A' for Active; 'I' for Inactive)
REMARK    1  A    between atoms: C_6  and  C_7 
REMARK    2  A    between atoms: C_7  and  O_8 
REMARK    3  A    between atoms: O_8  and  C_9 
REMARK       I    between atoms: C_9  and  N_10 
REMARK    4  A    between atoms: C_23  and  O_24 
REMARK    5  A    between atoms: C_23  and  O_25 
ROOT
ATOM      1  N           0     132.721 138.107 132.049  0.00  0.00    -0.235 N 
ATOM      2  H           0     132.087 138.788 131.775  0.00  0.00     0.174 HD
ATOM      3  H           0     133.645 138.159 131.757  0.00  0.00     0.174 HD
ATOM      4  C           0     132.333 137.123 132.811  0.00  0.00     0.672 C 
ATOM      5  N           0     131.028 137.007 133.257  0.00  0.00    -0.218 N 
ATOM      6  C           0     130.509 135.672 133.539  0.00  0.00     0.151 C 
ATOM      7  C           0     131.419 134.873 134.452  0.00  0.00     0.180 C 
ATOM      8  N           0     131.251 135.346 135.842  0.00  0.00    -0.216 N 
ATOM      9  C           0     132.493 135.360 136.429  0.00  0.00     0.670 C 
ATOM     10  N           0     132.695 135.369 137.716  0.00  0.00    -0.235 N 
ATOM     11  H           0     131.940 135.365 138.325  0.00  0.00     0.174 HD
ATOM     12  H           0     133.600 135.378 138.065  0.00  0.00     0.174 HD
ATOM     13  C           0     132.902 135.067 134.177  0.00  0.00     0.217 C 
ATOM     14  N           0     133.495 135.364 135.491  0.00  0.00    -0.191 N 
ATOM     15  N           0     133.190 136.134 133.219  0.00  0.00    -0.183 N 
ATOM     16  C           0     134.564 135.878 132.751  0.00  0.00     0.150 C 
ATOM     17  C           0     134.650 134.337 132.637  0.00  0.00     0.093 C 
ATOM     18  C           0     133.547 133.801 133.586  0.00  0.00     0.209 C 
ATOM     19  H           0     130.473 137.793 133.380  0.00  0.00     0.178 HD
ATOM     20  H           0     130.415 135.601 136.264  0.00  0.00     0.178 HD
ATOM     21  H           0     134.435 135.531 135.665  0.00  0.00     0.180 HD
ENDROOT
BRANCH   6  22
ATOM     22  C           0     130.348 134.916 132.219  0.00  0.00     0.208 C 
BRANCH  22  23
ATOM     23  O           0     129.002 134.382 132.127  0.00  0.00    -0.302 OA
BRANCH  23  24
ATOM     24  C           0     128.809 133.053 132.026  0.00  0.00     0.358 C 
ATOM     25  N           0     129.526 132.208 132.793  0.00  0.00    -0.346 N 
ATOM     26  H           0     130.182 132.557 133.418  0.00  0.00     0.161 HD
ATOM     27  H           0     129.388 131.251 132.720  0.00  0.00     0.161 HD
ATOM     28  O           0     127.989 132.616 131.244  0.00  0.00    -0.239 OA
ENDBRANCH  23  24
ENDBRANCH  22  23
ENDBRANCH   6  22
BRANCH  18  29
ATOM     29  O           0     134.125 133.002 134.619  0.00  0.00    -0.362 OA
ATOM     30  H           0     134.933 133.452 134.902  0.00  0.00     0.213 HD
ENDBRANCH  18  29
BRANCH  18  31
ATOM     31  O           0     132.581 133.047 132.852  0.00  0.00    -0.362 OA
ATOM     32  H           0     132.860 133.062 131.926  0.00  0.00     0.213 HD
ENDBRANCH  18  31
TORSDOF 5
ENDMDL
MODEL 8
REMARK VINA RESULT:      -6.2      3.422      4.847
REMARK  5 active torsions:
REMARK  status: ('A' for Active; 'I' for Inactive)
REMARK    1  A    between atoms: C_6  and  C_7 
REMARK    2  A    between atoms: C_7  and  O_8 
REMARK    3  A    between atoms: O_8  and  C_9 
REMARK       I    between atoms: C_9  and  N_10 
REMARK    4  A    between atoms: C_23  and  O_24 
REMARK    5  A    between atoms: C_23  and  O_25 
ROOT
ATOM      1  N           0     135.976 133.896 148.763  0.00  0.00    -0.235 N 
ATOM      2  H           0     135.095 134.213 149.014  0.00  0.00     0.174 HD
ATOM      3  H           0     136.760 134.431 148.966  0.00  0.00     0.174 HD
ATOM      4  C           0     136.109 132.749 148.158  0.00  0.00     0.672 C 
ATOM      5  N           0     135.023 131.947 147.852  0.00  0.00    -0.218 N 
ATOM      6  C           0     135.122 131.061 146.696  0.00  0.00     0.151 C 
ATOM      7  C           0     136.377 130.210 146.718  0.00  0.00     0.180 C 
ATOM      8  N           0     136.198 129.105 147.683  0.00  0.00    -0.216 N 
ATOM      9  C           0     137.389 128.935 148.345  0.00  0.00     0.670 C 
ATOM     10  N           0     137.721 127.852 148.990  0.00  0.00    -0.235 N 
ATOM     11  H           0     137.109 127.101 149.023  0.00  0.00     0.174 HD
ATOM     12  H           0     138.580 127.798 149.437  0.00  0.00     0.174 HD
ATOM     13  C           0     137.613 130.938 147.222  0.00  0.00     0.217 C 
ATOM     14  N           0     138.188 130.047 148.244  0.00  0.00    -0.191 N 
ATOM     15  N           0     137.333 132.261 147.779  0.00  0.00    -0.183 N 
ATOM     16  C           0     138.629 132.964 147.786  0.00  0.00     0.150 C 
ATOM     17  C           0     139.312 132.521 146.470  0.00  0.00     0.093 C 
ATOM     18  C           0     138.638 131.175 146.099  0.00  0.00     0.209 C 
ATOM     19  H           0     134.218 131.973 148.391  0.00  0.00     0.178 HD
ATOM     20  H           0     135.387 128.591 147.823  0.00  0.00     0.178 HD
ATOM     21  H           0     138.994 130.216 148.755  0.00  0.00     0.180 HD
ENDROOT
BRANCH   6  22
ATOM     22  C           0     135.124 131.909 145.422  0.00  0.00     0.208 C 
BRANCH  22  23
ATOM     23  O           0     135.061 131.040 144.262  0.00  0.00    -0.302 OA
BRANCH  23  24
ATOM     24  C           0     134.980 131.571 143.026  0.00  0.00     0.358 C 
ATOM     25  N           0     133.791 131.626 142.393  0.00  0.00    -0.346 N 
ATOM     26  H           0     132.994 131.283 142.827  0.00  0.00     0.161 HD
ATOM     27  H           0     133.733 132.007 141.503  0.00  0.00     0.161 HD
ATOM     28  O           0     135.978 132.000 142.484  0.00  0.00    -0.239 OA
ENDBRANCH  23  24
ENDBRANCH  22  23
ENDBRANCH   6  22
BRANCH  18  29
ATOM     29  O           0     139.606 130.125 146.071  0.00  0.00    -0.362 OA
ATOM     30  H           0     139.389 129.565 145.313  0.00  0.00     0.213 HD
ENDBRANCH  18  29
BRANCH  18  31
ATOM     31  O           0     137.977 131.280 144.837  0.00  0.00    -0.362 OA
ATOM     32  H           0     137.352 132.015 144.909  0.00  0.00     0.213 HD
ENDBRANCH  18  31
TORSDOF 5
ENDMDL
MODEL 9
REMARK VINA RESULT:      -6.1      7.128     10.957
REMARK  5 active torsions:
REMARK  status: ('A' for Active; 'I' for Inactive)
REMARK    1  A    between atoms: C_6  and  C_7 
REMARK    2  A    between atoms: C_7  and  O_8 
REMARK    3  A    between atoms: O_8  and  C_9 
REMARK       I    between atoms: C_9  and  N_10 
REMARK    4  A    between atoms: C_23  and  O_24 
REMARK    5  A    between atoms: C_23  and  O_25 
ROOT
ATOM      1  N           0     133.963 133.816 132.023  0.00  0.00    -0.235 N 
ATOM      2  H           0     134.864 133.788 132.382  0.00  0.00     0.174 HD
ATOM      3  H           0     133.815 134.093 131.105  0.00  0.00     0.174 HD
ATOM      4  C           0     132.951 133.478 132.772  0.00  0.00     0.672 C 
ATOM      5  N           0     133.110 133.072 134.086  0.00  0.00    -0.218 N 
ATOM      6  C           0     132.014 133.309 135.021  0.00  0.00     0.151 C 
ATOM      7  C           0     130.684 132.800 134.502  0.00  0.00     0.180 C 
ATOM      8  N           0     130.633 131.331 134.651  0.00  0.00    -0.216 N 
ATOM      9  C           0     130.021 130.821 133.531  0.00  0.00     0.670 C 
ATOM     10  N           0     129.484 129.636 133.465  0.00  0.00    -0.235 N 
ATOM     11  H           0     129.500 129.053 134.240  0.00  0.00     0.174 HD
ATOM     12  H           0     129.067 129.338 132.642  0.00  0.00     0.174 HD
ATOM     13  C           0     130.471 133.025 133.013  0.00  0.00     0.217 C 
ATOM     14  N           0     130.046 131.715 132.490  0.00  0.00    -0.191 N 
ATOM     15  N           0     131.661 133.508 132.313  0.00  0.00    -0.183 N 
ATOM     16  C           0     131.164 134.079 131.047  0.00  0.00     0.150 C 
ATOM     17  C           0     129.839 134.778 131.437  0.00  0.00     0.093 C 
ATOM     18  C           0     129.380 134.075 132.740  0.00  0.00     0.209 C 
ATOM     19  H           0     133.928 132.640 134.377  0.00  0.00     0.178 HD
ATOM     20  H           0     130.969 130.818 135.403  0.00  0.00     0.178 HD
ATOM     21  H           0     129.820 131.519 131.568  0.00  0.00     0.180 HD
ENDROOT
BRANCH   6  22
ATOM     22  C           0     131.902 134.812 135.278  0.00  0.00     0.208 C 
BRANCH  22  23
ATOM     23  O           0     132.654 135.158 136.470  0.00  0.00    -0.302 OA
BRANCH  23  24
ATOM     24  C           0     133.961 135.471 136.375  0.00  0.00     0.358 C 
ATOM     25  N           0     134.721 135.536 137.486  0.00  0.00    -0.346 N 
ATOM     26  H           0     134.327 135.357 138.355  0.00  0.00     0.161 HD
ATOM     27  H           0     135.662 135.762 137.418  0.00  0.00     0.161 HD
ATOM     28  O           0     134.454 135.694 135.287  0.00  0.00    -0.239 OA
ENDBRANCH  23  24
ENDBRANCH  22  23
ENDBRANCH   6  22
BRANCH  18  29
ATOM     29  O           0     128.112 133.446 132.546  0.00  0.00    -0.362 OA
ATOM     30  H           0     127.957 132.886 133.320  0.00  0.00     0.213 HD
ENDBRANCH  18  29
BRANCH  18  31
ATOM     31  O           0     129.314 135.013 133.816  0.00  0.00    -0.362 OA
ATOM     32  H           0     129.951 134.720 134.482  0.00  0.00     0.213 HD
ENDBRANCH  18  31
TORSDOF 5
ENDMDL
