# created with PyMOL 2.3.4
@<TRIPOS>MOLECULE
ligand_out_0001
32 34 1                 
SMALL
USER_CHARGES
@<TRIPOS>ATOM
1	   N	135.059	136.789	143.166	N.3	1	UNK0	-0.235	
2	   N	133.796	134.809	143.029	N.3	1	UNK0	-0.218	
3	   N	134.088	132.200	144.641	N.3	1	UNK0	-0.216	
4	   N	134.854	131.663	146.815	N.3	1	UNK0	-0.235	
5	   N	136.096	133.014	145.323	N.3	1	UNK0	-0.191	
6	   N	136.054	134.715	143.604	N.3	1	UNK0	-0.183	
7	   N	133.544	136.044	139.858	N.pl3	1	UNK0	-0.346	
8	   C	134.976	135.491	143.265	C.3	1	UNK0	0.672	
9	   C	133.877	133.433	142.545	C.3	1	UNK0	0.151	
10	   C	134.789	132.569	143.394	C.3	1	UNK0	0.180	
11	   C	135.004	132.256	145.663	C.3	1	UNK0	0.670	
12	   C	136.045	133.277	143.875	C.3	1	UNK0	0.217	
13	   C	137.465	135.125	143.715	C.3	1	UNK0	0.150	
14	   C	138.256	133.950	143.089	C.3	1	UNK0	0.093	
15	   C	137.312	132.725	143.199	C.3	1	UNK0	0.209	
16	   C	134.403	133.446	141.109	C.2	1	UNK0	0.208	
17	   C	133.409	134.798	139.361	C.2	1	UNK0	0.358	
18	   O	133.316	133.746	140.197	O.2	1	UNK0	-0.302	
19	   O	133.371	134.624	138.159	O.co2	1	UNK0	-0.239	
20	   O	137.909	131.707	144.004	O.2	1	UNK0	-0.362	
21	   O	137.000	132.218	141.900	O.2	1	UNK0	-0.362	
22	   H	134.278	137.308	142.920	 H	1	UNK0	0.174	
23	   H	135.903	137.235	143.342	 H	1	UNK0	0.174	
24	   H	134.055	131.141	146.990	 H	1	UNK0	0.174	
25	   H	135.541	131.743	147.494	 H	1	UNK0	0.174	
26	   H	132.937	135.233	143.182	 H	1	UNK0	0.178	
27	   H	133.151	131.961	144.724	 H	1	UNK0	0.178	
28	   H	136.786	133.321	145.932	 H	1	UNK0	0.180	
29	   H	133.574	136.183	140.818	 H	1	UNK0	0.161	
30	   H	133.610	136.802	139.256	 H	1	UNK0	0.161	
31	   H	138.724	131.439	143.556	 H	1	UNK0	0.213	
32	   H	136.038	132.127	141.859	 H	1	UNK0	0.213	
@<TRIPOS>BOND
1 1 8 1
2 1 22 1
3 1 23 1
4 2 9 1
5 2 26 1
6 3 11 1
7 3 27 1
8 4 24 1
9 4 25 1
10 5 28 1
11 6 13 1
12 7 29 1
13 7 30 1
14 2 8 1
15 6 8 1
16 9 10 1
17 9 16 1
18 3 10 1
19 10 12 1
20 4 11 1
21 5 11 1
22 5 12 1
23 6 12 1
24 12 15 1
25 13 14 1
26 14 15 1
27 15 20 2
28 15 21 2
29 16 18 2
30 7 17 1
31 17 19 2
32 17 18 2
33 20 31 1
34 21 32 1
@<TRIPOS>SUBSTRUCTURE
1	UNK0	1	GROUP	1 ****	UNK
