MODEL 1
REMARK VINA RESULT:      -8.0      0.000      0.000
REMARK  5 active torsions:
REMARK  status: ('A' for Active; 'I' for Inactive)
REMARK    1  A    between atoms: C_6  and  C_7 
REMARK    2  A    between atoms: C_7  and  O_8 
REMARK    3  A    between atoms: O_8  and  C_9 
REMARK       I    between atoms: C_9  and  N_10 
REMARK    4  A    between atoms: C_23  and  O_24 
REMARK    5  A    between atoms: C_23  and  O_25 
ROOT
ATOM      1  N           0     135.049 136.774 143.157  0.00  0.00    -0.235 N 
ATOM      2  H           0     134.265 137.291 142.914  0.00  0.00     0.174 HD
ATOM      3  H           0     135.892 137.223 143.327  0.00  0.00     0.174 HD
ATOM      4  C           0     134.968 135.477 143.260  0.00  0.00     0.672 C 
ATOM      5  N           0     133.787 134.792 143.032  0.00  0.00    -0.218 N 
ATOM      6  C           0     133.868 133.415 142.551  0.00  0.00     0.151 C 
ATOM      7  C           0     134.787 132.555 143.397  0.00  0.00     0.180 C 
ATOM      8  N           0     134.093 132.188 144.649  0.00  0.00    -0.216 N 
ATOM      9  C           0     135.013 132.249 145.667  0.00  0.00     0.670 C 
ATOM     10  N           0     134.871 131.659 146.820  0.00  0.00    -0.235 N 
ATOM     11  H           0     134.074 131.136 147.002  0.00  0.00     0.174 HD
ATOM     12  H           0     135.561 131.742 147.496  0.00  0.00     0.174 HD
ATOM     13  C           0     136.044 133.267 143.871  0.00  0.00     0.217 C 
ATOM     14  N           0     136.103 133.007 145.319  0.00  0.00    -0.191 N 
ATOM     15  N           0     136.048 134.703 143.595  0.00  0.00    -0.183 N 
ATOM     16  C           0     137.460 135.116 143.698  0.00  0.00     0.150 C 
ATOM     17  C           0     138.249 133.941 143.071  0.00  0.00     0.093 C 
ATOM     18  C           0     137.308 132.715 143.189  0.00  0.00     0.209 C 
ATOM     19  H           0     132.929 135.215 143.188  0.00  0.00     0.178 HD
ATOM     20  H           0     133.157 131.948 144.738  0.00  0.00     0.178 HD
ATOM     21  H           0     136.795 133.318 145.923  0.00  0.00     0.180 HD
ENDROOT
BRANCH   6  22
ATOM     22  C           0     134.388 133.425 141.113  0.00  0.00     0.208 C 
BRANCH  22  23
ATOM     23  O           0     133.294 133.718 140.204  0.00  0.00    -0.302 OA
BRANCH  23  24
ATOM     24  C           0     133.370 134.779 139.379  0.00  0.00     0.358 C 
ATOM     25  N           0     133.548 136.015 139.885  0.00  0.00    -0.346 N 
ATOM     26  H           0     133.622 136.141 140.845  0.00  0.00     0.161 HD
ATOM     27  H           0     133.602 136.780 139.291  0.00  0.00     0.161 HD
ATOM     28  O           0     133.278 134.622 138.178  0.00  0.00    -0.239 OA
ENDBRANCH  23  24
ENDBRANCH  22  23
ENDBRANCH   6  22
BRANCH  18  29
ATOM     29  O           0     137.912 131.700 143.993  0.00  0.00    -0.362 OA
ATOM     30  H           0     138.250 131.027 143.386  0.00  0.00     0.213 HD
ENDBRANCH  18  29
BRANCH  18  31
ATOM     31  O           0     136.991 132.203 141.893  0.00  0.00    -0.362 OA
ATOM     32  H           0     136.035 132.052 141.879  0.00  0.00     0.213 HD
ENDBRANCH  18  31
TORSDOF 5
ENDMDL
MODEL 2
REMARK VINA RESULT:      -7.5      1.896      5.666
REMARK  5 active torsions:
REMARK  status: ('A' for Active; 'I' for Inactive)
REMARK    1  A    between atoms: C_6  and  C_7 
REMARK    2  A    between atoms: C_7  and  O_8 
REMARK    3  A    between atoms: O_8  and  C_9 
REMARK       I    between atoms: C_9  and  N_10 
REMARK    4  A    between atoms: C_23  and  O_24 
REMARK    5  A    between atoms: C_23  and  O_25 
ROOT
ATOM      1  N           0     134.903 132.137 146.754  0.00  0.00    -0.235 N 
ATOM      2  H           0     135.148 132.260 147.684  0.00  0.00     0.174 HD
ATOM      3  H           0     134.250 131.462 146.510  0.00  0.00     0.174 HD
ATOM      4  C           0     135.449 132.880 145.832  0.00  0.00     0.672 C 
ATOM      5  N           0     136.382 133.858 146.130  0.00  0.00    -0.218 N 
ATOM      6  C           0     137.376 134.197 145.116  0.00  0.00     0.151 C 
ATOM      7  C           0     136.753 134.499 143.766  0.00  0.00     0.180 C 
ATOM      8  N           0     136.165 135.855 143.795  0.00  0.00    -0.216 N 
ATOM      9  C           0     134.978 135.806 143.106  0.00  0.00     0.670 C 
ATOM     10  N           0     134.371 136.851 142.617  0.00  0.00    -0.235 N 
ATOM     11  H           0     134.758 137.733 142.731  0.00  0.00     0.174 HD
ATOM     12  H           0     133.534 136.746 142.139  0.00  0.00     0.174 HD
ATOM     13  C           0     135.582 133.600 143.407  0.00  0.00     0.217 C 
ATOM     14  N           0     134.510 134.521 142.994  0.00  0.00    -0.191 N 
ATOM     15  N           0     135.140 132.739 144.504  0.00  0.00    -0.183 N 
ATOM     16  C           0     134.349 131.670 143.867  0.00  0.00     0.150 C 
ATOM     17  C           0     135.109 131.362 142.554  0.00  0.00     0.093 C 
ATOM     18  C           0     135.924 132.645 142.250  0.00  0.00     0.209 C 
ATOM     19  H           0     136.375 134.306 146.990  0.00  0.00     0.178 HD
ATOM     20  H           0     136.547 136.638 144.222  0.00  0.00     0.178 HD
ATOM     21  H           0     133.625 134.263 142.692  0.00  0.00     0.180 HD
ENDROOT
BRANCH   6  22
ATOM     22  C           0     138.344 133.023 144.961  0.00  0.00     0.208 C 
BRANCH  22  23
ATOM     23  O           0     138.866 132.650 146.263  0.00  0.00    -0.302 OA
BRANCH  23  24
ATOM     24  C           0     138.897 131.355 146.630  0.00  0.00     0.358 C 
ATOM     25  N           0     138.091 130.462 146.023  0.00  0.00    -0.346 N 
ATOM     26  H           0     137.487 130.753 145.321  0.00  0.00     0.161 HD
ATOM     27  H           0     138.113 129.529 146.288  0.00  0.00     0.161 HD
ATOM     28  O           0     139.654 130.991 147.509  0.00  0.00    -0.239 OA
ENDBRANCH  23  24
ENDBRANCH  22  23
ENDBRANCH   6  22
BRANCH  18  29
ATOM     29  O           0     135.522 133.205 140.999  0.00  0.00    -0.362 OA
ATOM     30  H           0     136.329 133.496 140.551  0.00  0.00     0.213 HD
ENDBRANCH  18  29
BRANCH  18  31
ATOM     31  O           0     137.324 132.356 142.242  0.00  0.00    -0.362 OA
ATOM     32  H           0     137.774 133.164 141.959  0.00  0.00     0.213 HD
ENDBRANCH  18  31
TORSDOF 5
ENDMDL
MODEL 3
REMARK VINA RESULT:      -7.1      2.350      5.114
REMARK  5 active torsions:
REMARK  status: ('A' for Active; 'I' for Inactive)
REMARK    1  A    between atoms: C_6  and  C_7 
REMARK    2  A    between atoms: C_7  and  O_8 
REMARK    3  A    between atoms: O_8  and  C_9 
REMARK       I    between atoms: C_9  and  N_10 
REMARK    4  A    between atoms: C_23  and  O_24 
REMARK    5  A    between atoms: C_23  and  O_25 
ROOT
ATOM      1  N           0     136.000 134.628 146.621  0.00  0.00    -0.235 N 
ATOM      2  H           0     136.452 135.451 146.862  0.00  0.00     0.174 HD
ATOM      3  H           0     135.552 134.102 147.303  0.00  0.00     0.174 HD
ATOM      4  C           0     135.988 134.230 145.380  0.00  0.00     0.672 C 
ATOM      5  N           0     136.607 134.946 144.370  0.00  0.00    -0.218 N 
ATOM      6  C           0     137.102 134.216 143.206  0.00  0.00     0.151 C 
ATOM      7  C           0     136.052 133.307 142.598  0.00  0.00     0.180 C 
ATOM      8  N           0     135.099 134.120 141.814  0.00  0.00    -0.216 N 
ATOM      9  C           0     133.842 133.609 142.029  0.00  0.00     0.670 C 
ATOM     10  N           0     132.821 133.823 141.248  0.00  0.00    -0.235 N 
ATOM     11  H           0     132.923 134.375 140.457  0.00  0.00     0.174 HD
ATOM     12  H           0     131.960 133.430 141.458  0.00  0.00     0.174 HD
ATOM     13  C           0     135.175 132.600 143.619  0.00  0.00     0.217 C 
ATOM     14  N           0     133.795 132.843 143.167  0.00  0.00    -0.191 N 
ATOM     15  N           0     135.368 133.071 144.991  0.00  0.00    -0.183 N 
ATOM     16  C           0     134.808 132.012 145.850  0.00  0.00     0.150 C 
ATOM     17  C           0     135.210 130.694 145.144  0.00  0.00     0.093 C 
ATOM     18  C           0     135.451 131.087 143.665  0.00  0.00     0.209 C 
ATOM     19  H           0     136.709 135.909 144.434  0.00  0.00     0.178 HD
ATOM     20  H           0     135.320 134.878 141.250  0.00  0.00     0.178 HD
ATOM     21  H           0     132.990 132.516 143.598  0.00  0.00     0.180 HD
ENDROOT
BRANCH   6  22
ATOM     22  C           0     138.303 133.369 143.630  0.00  0.00     0.208 C 
BRANCH  22  23
ATOM     23  O           0     138.228 133.100 145.054  0.00  0.00    -0.302 OA
BRANCH  23  24
ATOM     24  C           0     138.988 132.129 145.597  0.00  0.00     0.358 C 
ATOM     25  N           0     138.531 130.862 145.643  0.00  0.00    -0.346 N 
ATOM     26  H           0     137.654 130.649 145.286  0.00  0.00     0.161 HD
ATOM     27  H           0     139.078 130.163 146.035  0.00  0.00     0.161 HD
ATOM     28  O           0     140.086 132.396 146.044  0.00  0.00    -0.239 OA
ENDBRANCH  23  24
ENDBRANCH  22  23
ENDBRANCH   6  22
BRANCH  18  29
ATOM     29  O           0     134.546 130.385 142.810  0.00  0.00    -0.362 OA
ATOM     30  H           0     133.995 131.052 142.379  0.00  0.00     0.213 HD
ENDBRANCH  18  29
BRANCH  18  31
ATOM     31  O           0     136.803 130.817 143.291  0.00  0.00    -0.362 OA
ATOM     32  H           0     136.779 130.072 142.674  0.00  0.00     0.213 HD
ENDBRANCH  18  31
TORSDOF 5
ENDMDL
MODEL 4
REMARK VINA RESULT:      -6.9      2.911      4.785
REMARK  5 active torsions:
REMARK  status: ('A' for Active; 'I' for Inactive)
REMARK    1  A    between atoms: C_6  and  C_7 
REMARK    2  A    between atoms: C_7  and  O_8 
REMARK    3  A    between atoms: O_8  and  C_9 
REMARK       I    between atoms: C_9  and  N_10 
REMARK    4  A    between atoms: C_23  and  O_24 
REMARK    5  A    between atoms: C_23  and  O_25 
ROOT
ATOM      1  N           0     139.674 130.634 146.021  0.00  0.00    -0.235 N 
ATOM      2  H           0     140.423 130.792 145.427  0.00  0.00     0.174 HD
ATOM      3  H           0     139.715 129.915 146.672  0.00  0.00     0.174 HD
ATOM      4  C           0     138.612 131.387 145.949  0.00  0.00     0.672 C 
ATOM      5  N           0     138.507 132.427 145.041  0.00  0.00    -0.218 N 
ATOM      6  C           0     137.177 132.804 144.572  0.00  0.00     0.151 C 
ATOM      7  C           0     136.201 133.036 145.709  0.00  0.00     0.180 C 
ATOM      8  N           0     136.473 134.354 146.321  0.00  0.00    -0.216 N 
ATOM      9  C           0     136.329 134.217 147.680  0.00  0.00     0.670 C 
ATOM     10  N           0     136.136 135.211 148.501  0.00  0.00    -0.235 N 
ATOM     11  H           0     136.086 136.118 148.159  0.00  0.00     0.174 HD
ATOM     12  H           0     136.042 135.044 149.451  0.00  0.00     0.174 HD
ATOM     13  C           0     136.348 132.059 146.864  0.00  0.00     0.217 C 
ATOM     14  N           0     136.413 132.903 148.069  0.00  0.00    -0.191 N 
ATOM     15  N           0     137.526 131.198 146.763  0.00  0.00    -0.183 N 
ATOM     16  C           0     137.264 130.068 147.673  0.00  0.00     0.150 C 
ATOM     17  C           0     135.753 129.778 147.497  0.00  0.00     0.093 C 
ATOM     18  C           0     135.148 131.101 146.962  0.00  0.00     0.209 C 
ATOM     19  H           0     139.297 132.893 144.726  0.00  0.00     0.178 HD
ATOM     20  H           0     136.710 135.168 145.850  0.00  0.00     0.178 HD
ATOM     21  H           0     136.498 132.585 148.981  0.00  0.00     0.180 HD
ENDROOT
BRANCH   6  22
ATOM     22  C           0     136.635 131.688 143.677  0.00  0.00     0.208 C 
BRANCH  22  23
ATOM     23  O           0     135.327 132.063 143.174  0.00  0.00    -0.302 OA
BRANCH  23  24
ATOM     24  C           0     135.208 133.075 142.293  0.00  0.00     0.358 C 
ATOM     25  N           0     135.893 133.042 141.133  0.00  0.00    -0.346 N 
ATOM     26  H           0     136.471 132.289 140.931  0.00  0.00     0.161 HD
ATOM     27  H           0     135.808 133.772 140.499  0.00  0.00     0.161 HD
ATOM     28  O           0     134.484 134.018 142.546  0.00  0.00    -0.239 OA
ENDBRANCH  23  24
ENDBRANCH  22  23
ENDBRANCH   6  22
BRANCH  18  29
ATOM     29  O           0     134.173 131.607 147.875  0.00  0.00    -0.362 OA
ATOM     30  H           0     133.309 131.477 147.461  0.00  0.00     0.213 HD
ENDBRANCH  18  29
BRANCH  18  31
ATOM     31  O           0     134.568 130.898 145.672  0.00  0.00    -0.362 OA
ATOM     32  H           0     133.864 131.554 145.576  0.00  0.00     0.213 HD
ENDBRANCH  18  31
TORSDOF 5
ENDMDL
MODEL 5
REMARK VINA RESULT:      -6.9      3.010      4.481
REMARK  5 active torsions:
REMARK  status: ('A' for Active; 'I' for Inactive)
REMARK    1  A    between atoms: C_6  and  C_7 
REMARK    2  A    between atoms: C_7  and  O_8 
REMARK    3  A    between atoms: O_8  and  C_9 
REMARK       I    between atoms: C_9  and  N_10 
REMARK    4  A    between atoms: C_23  and  O_24 
REMARK    5  A    between atoms: C_23  and  O_25 
ROOT
ATOM      1  N           0     136.095 134.649 147.276  0.00  0.00    -0.235 N 
ATOM      2  H           0     135.631 135.369 146.822  0.00  0.00     0.174 HD
ATOM      3  H           0     136.579 134.827 148.098  0.00  0.00     0.174 HD
ATOM      4  C           0     136.067 133.442 146.786  0.00  0.00     0.672 C 
ATOM      5  N           0     135.388 133.136 145.619  0.00  0.00    -0.218 N 
ATOM      6  C           0     135.871 132.022 144.809  0.00  0.00     0.151 C 
ATOM      7  C           0     136.066 130.754 145.617  0.00  0.00     0.180 C 
ATOM      8  N           0     134.749 130.133 145.873  0.00  0.00    -0.216 N 
ATOM      9  C           0     134.762 129.650 147.159  0.00  0.00     0.670 C 
ATOM     10  N           0     133.940 128.745 147.610  0.00  0.00    -0.235 N 
ATOM     11  H           0     133.265 128.368 147.023  0.00  0.00     0.174 HD
ATOM     12  H           0     134.004 128.447 148.531  0.00  0.00     0.174 HD
ATOM     13  C           0     136.639 130.984 147.006  0.00  0.00     0.217 C 
ATOM     14  N           0     135.748 130.239 147.911  0.00  0.00    -0.191 N 
ATOM     15  N           0     136.713 132.394 147.388  0.00  0.00    -0.183 N 
ATOM     16  C           0     137.670 132.444 148.509  0.00  0.00     0.150 C 
ATOM     17  C           0     138.763 131.418 148.126  0.00  0.00     0.093 C 
ATOM     18  C           0     138.076 130.449 147.131  0.00  0.00     0.209 C 
ATOM     19  H           0     134.610 133.648 145.348  0.00  0.00     0.178 HD
ATOM     20  H           0     134.009 130.077 145.248  0.00  0.00     0.178 HD
ATOM     21  H           0     135.843 130.173 148.874  0.00  0.00     0.180 HD
ENDROOT
BRANCH   6  22
ATOM     22  C           0     137.207 132.414 144.177  0.00  0.00     0.208 C 
BRANCH  22  23
ATOM     23  O           0     136.977 133.374 143.113  0.00  0.00    -0.302 OA
BRANCH  23  24
ATOM     24  C           0     137.493 134.615 143.201  0.00  0.00     0.358 C 
ATOM     25  N           0     136.710 135.646 143.575  0.00  0.00    -0.346 N 
ATOM     26  H           0     135.774 135.495 143.780  0.00  0.00     0.161 HD
ATOM     27  H           0     137.082 136.540 143.638  0.00  0.00     0.161 HD
ATOM     28  O           0     138.666 134.804 142.944  0.00  0.00    -0.239 OA
ENDBRANCH  23  24
ENDBRANCH  22  23
ENDBRANCH   6  22
BRANCH  18  29
ATOM     29  O           0     138.075 129.119 147.652  0.00  0.00    -0.362 OA
ATOM     30  H           0     137.514 129.128 148.440  0.00  0.00     0.213 HD
ENDBRANCH  18  29
BRANCH  18  31
ATOM     31  O           0     138.733 130.489 145.862  0.00  0.00    -0.362 OA
ATOM     32  H           0     139.235 131.315 145.834  0.00  0.00     0.213 HD
ENDBRANCH  18  31
TORSDOF 5
ENDMDL
MODEL 6
REMARK VINA RESULT:      -6.8      5.291      9.772
REMARK  5 active torsions:
REMARK  status: ('A' for Active; 'I' for Inactive)
REMARK    1  A    between atoms: C_6  and  C_7 
REMARK    2  A    between atoms: C_7  and  O_8 
REMARK    3  A    between atoms: O_8  and  C_9 
REMARK       I    between atoms: C_9  and  N_10 
REMARK    4  A    between atoms: C_23  and  O_24 
REMARK    5  A    between atoms: C_23  and  O_25 
ROOT
ATOM      1  N           0     131.411 132.153 135.029  0.00  0.00    -0.235 N 
ATOM      2  H           0     130.819 131.814 135.717  0.00  0.00     0.174 HD
ATOM      3  H           0     131.788 131.548 134.371  0.00  0.00     0.174 HD
ATOM      4  C           0     131.698 133.424 134.984  0.00  0.00     0.672 C 
ATOM      5  N           0     131.183 134.329 135.896  0.00  0.00    -0.218 N 
ATOM      6  C           0     131.964 135.524 136.201  0.00  0.00     0.151 C 
ATOM      7  C           0     132.401 136.270 134.955  0.00  0.00     0.180 C 
ATOM      8  N           0     131.254 137.029 134.415  0.00  0.00    -0.216 N 
ATOM      9  C           0     131.301 136.932 133.045  0.00  0.00     0.670 C 
ATOM     10  N           0     130.690 137.746 132.232  0.00  0.00    -0.235 N 
ATOM     11  H           0     130.159 138.477 132.586  0.00  0.00     0.174 HD
ATOM     12  H           0     130.765 137.621 131.273  0.00  0.00     0.174 HD
ATOM     13  C           0     132.817 135.367 133.805  0.00  0.00     0.217 C 
ATOM     14  N           0     132.073 135.872 132.639  0.00  0.00    -0.191 N 
ATOM     15  N           0     132.534 133.950 134.034  0.00  0.00    -0.183 N 
ATOM     16  C           0     133.381 133.223 133.070  0.00  0.00     0.150 C 
ATOM     17  C           0     134.707 134.021 133.046  0.00  0.00     0.093 C 
ATOM     18  C           0     134.329 135.443 133.532  0.00  0.00     0.209 C 
ATOM     19  H           0     130.325 134.173 136.320  0.00  0.00     0.178 HD
ATOM     20  H           0     130.589 137.509 134.932  0.00  0.00     0.178 HD
ATOM     21  H           0     132.121 135.517 131.738  0.00  0.00     0.180 HD
ENDROOT
BRANCH   6  22
ATOM     22  C           0     133.207 135.113 136.992  0.00  0.00     0.208 C 
BRANCH  22  23
ATOM     23  O           0     132.807 134.358 138.165  0.00  0.00    -0.302 OA
BRANCH  23  24
ATOM     24  C           0     133.068 134.838 139.396  0.00  0.00     0.358 C 
ATOM     25  N           0     133.534 136.093 139.545  0.00  0.00    -0.346 N 
ATOM     26  H           0     133.682 136.652 138.766  0.00  0.00     0.161 HD
ATOM     27  H           0     133.723 136.439 140.432  0.00  0.00     0.161 HD
ATOM     28  O           0     132.883 134.138 140.373  0.00  0.00    -0.239 OA
ENDBRANCH  23  24
ENDBRANCH  22  23
ENDBRANCH   6  22
BRANCH  18  29
ATOM     29  O           0     134.609 136.407 132.514  0.00  0.00    -0.362 OA
ATOM     30  H           0     134.361 136.003 131.671  0.00  0.00     0.213 HD
ENDBRANCH  18  29
BRANCH  18  31
ATOM     31  O           0     135.035 135.764 134.732  0.00  0.00    -0.362 OA
ATOM     32  H           0     135.357 136.671 134.633  0.00  0.00     0.213 HD
ENDBRANCH  18  31
TORSDOF 5
ENDMDL
MODEL 7
REMARK VINA RESULT:      -6.8      4.689      6.935
REMARK  5 active torsions:
REMARK  status: ('A' for Active; 'I' for Inactive)
REMARK    1  A    between atoms: C_6  and  C_7 
REMARK    2  A    between atoms: C_7  and  O_8 
REMARK    3  A    between atoms: O_8  and  C_9 
REMARK       I    between atoms: C_9  and  N_10 
REMARK    4  A    between atoms: C_23  and  O_24 
REMARK    5  A    between atoms: C_23  and  O_25 
ROOT
ATOM      1  N           0     134.318 132.004 149.422  0.00  0.00    -0.235 N 
ATOM      2  H           0     133.890 131.682 150.230  0.00  0.00     0.174 HD
ATOM      3  H           0     134.185 132.922 149.136  0.00  0.00     0.174 HD
ATOM      4  C           0     135.075 131.207 148.722  0.00  0.00     0.672 C 
ATOM      5  N           0     135.299 129.892 149.091  0.00  0.00    -0.218 N 
ATOM      6  C           0     135.588 128.919 148.041  0.00  0.00     0.151 C 
ATOM      7  C           0     136.701 129.372 147.115  0.00  0.00     0.180 C 
ATOM      8  N           0     138.002 129.186 147.792  0.00  0.00    -0.216 N 
ATOM      9  C           0     138.789 130.267 147.480  0.00  0.00     0.670 C 
ATOM     10  N           0     140.088 130.283 147.588  0.00  0.00    -0.235 N 
ATOM     11  H           0     140.557 129.495 147.905  0.00  0.00     0.174 HD
ATOM     12  H           0     140.584 131.081 147.349  0.00  0.00     0.174 HD
ATOM     13  C           0     136.669 130.855 146.785  0.00  0.00     0.217 C 
ATOM     14  N           0     138.039 131.329 147.041  0.00  0.00    -0.191 N 
ATOM     15  N           0     135.696 131.615 147.571  0.00  0.00    -0.183 N 
ATOM     16  C           0     135.492 132.872 146.828  0.00  0.00     0.150 C 
ATOM     17  C           0     135.511 132.445 145.340  0.00  0.00     0.093 C 
ATOM     18  C           0     136.294 131.109 145.314  0.00  0.00     0.209 C 
ATOM     19  H           0     135.266 129.624 150.022  0.00  0.00     0.178 HD
ATOM     20  H           0     138.255 128.436 148.353  0.00  0.00     0.178 HD
ATOM     21  H           0     138.358 132.237 146.917  0.00  0.00     0.180 HD
ENDROOT
BRANCH   6  22
ATOM     22  C           0     134.321 128.693 147.215  0.00  0.00     0.208 C 
BRANCH  22  23
ATOM     23  O           0     133.297 128.094 148.052  0.00  0.00    -0.302 OA
BRANCH  23  24
ATOM     24  C           0     132.334 127.332 147.498  0.00  0.00     0.358 C 
ATOM     25  N           0     132.638 126.114 147.009  0.00  0.00    -0.346 N 
ATOM     26  H           0     133.550 125.785 147.055  0.00  0.00     0.161 HD
ATOM     27  H           0     131.944 125.565 146.609  0.00  0.00     0.161 HD
ATOM     28  O           0     131.193 127.744 147.440  0.00  0.00    -0.239 OA
ENDBRANCH  23  24
ENDBRANCH  22  23
ENDBRANCH   6  22
BRANCH  18  29
ATOM     29  O           0     137.468 131.236 144.510  0.00  0.00    -0.362 OA
ATOM     30  H           0     137.962 131.994 144.854  0.00  0.00     0.213 HD
ENDBRANCH  18  29
BRANCH  18  31
ATOM     31  O           0     135.464 130.054 144.824  0.00  0.00    -0.362 OA
ATOM     32  H           0     135.592 129.300 145.417  0.00  0.00     0.213 HD
ENDBRANCH  18  31
TORSDOF 5
ENDMDL
MODEL 8
REMARK VINA RESULT:      -6.7      2.913      5.726
REMARK  5 active torsions:
REMARK  status: ('A' for Active; 'I' for Inactive)
REMARK    1  A    between atoms: C_6  and  C_7 
REMARK    2  A    between atoms: C_7  and  O_8 
REMARK    3  A    between atoms: O_8  and  C_9 
REMARK       I    between atoms: C_9  and  N_10 
REMARK    4  A    between atoms: C_23  and  O_24 
REMARK    5  A    between atoms: C_23  and  O_25 
ROOT
ATOM      1  N           0     138.813 130.755 145.494  0.00  0.00    -0.235 N 
ATOM      2  H           0     138.941 130.058 146.155  0.00  0.00     0.174 HD
ATOM      3  H           0     139.564 131.062 144.961  0.00  0.00     0.174 HD
ATOM      4  C           0     137.632 131.278 145.318  0.00  0.00     0.672 C 
ATOM      5  N           0     136.530 130.872 146.049  0.00  0.00    -0.218 N 
ATOM      6  C           0     135.458 131.837 146.279  0.00  0.00     0.151 C 
ATOM      7  C           0     134.988 132.503 145.001  0.00  0.00     0.180 C 
ATOM      8  N           0     134.125 131.565 144.253  0.00  0.00    -0.216 N 
ATOM      9  C           0     134.425 131.700 142.919  0.00  0.00     0.670 C 
ATOM     10  N           0     133.642 131.317 141.950  0.00  0.00    -0.235 N 
ATOM     11  H           0     132.786 130.908 142.152  0.00  0.00     0.174 HD
ATOM     12  H           0     133.915 131.443 141.028  0.00  0.00     0.174 HD
ATOM     13  C           0     136.105 132.831 144.024  0.00  0.00     0.217 C 
ATOM     14  N           0     135.651 132.288 142.733  0.00  0.00    -0.191 N 
ATOM     15  N           0     137.403 132.270 144.400  0.00  0.00    -0.183 N 
ATOM     16  C           0     138.398 133.038 143.630  0.00  0.00     0.150 C 
ATOM     17  C           0     137.857 134.488 143.642  0.00  0.00     0.093 C 
ATOM     18  C           0     136.335 134.347 143.901  0.00  0.00     0.209 C 
ATOM     19  H           0     136.470 129.970 146.399  0.00  0.00     0.178 HD
ATOM     20  H           0     133.466 130.963 144.634  0.00  0.00     0.178 HD
ATOM     21  H           0     136.134 132.339 141.893  0.00  0.00     0.180 HD
ENDROOT
BRANCH   6  22
ATOM     22  C           0     135.963 132.915 147.240  0.00  0.00     0.208 C 
BRANCH  22  23
ATOM     23  O           0     135.232 132.829 148.491  0.00  0.00    -0.302 OA
BRANCH  23  24
ATOM     24  C           0     134.625 131.679 148.840  0.00  0.00     0.358 C 
ATOM     25  N           0     133.279 131.610 148.873  0.00  0.00    -0.346 N 
ATOM     26  H           0     132.747 132.389 148.645  0.00  0.00     0.161 HD
ATOM     27  H           0     132.842 130.781 149.124  0.00  0.00     0.161 HD
ATOM     28  O           0     135.291 130.703 149.125  0.00  0.00    -0.239 OA
ENDBRANCH  23  24
ENDBRANCH  22  23
ENDBRANCH   6  22
BRANCH  18  29
ATOM     29  O           0     135.592 134.882 142.804  0.00  0.00    -0.362 OA
ATOM     30  H           0     134.686 134.556 142.895  0.00  0.00     0.213 HD
ENDBRANCH  18  29
BRANCH  18  31
ATOM     31  O           0     135.974 135.005 145.117  0.00  0.00    -0.362 OA
ATOM     32  H           0     135.100 135.395 144.975  0.00  0.00     0.213 HD
ENDBRANCH  18  31
TORSDOF 5
ENDMDL
MODEL 9
REMARK VINA RESULT:      -6.7      2.998      4.755
REMARK  5 active torsions:
REMARK  status: ('A' for Active; 'I' for Inactive)
REMARK    1  A    between atoms: C_6  and  C_7 
REMARK    2  A    between atoms: C_7  and  O_8 
REMARK    3  A    between atoms: O_8  and  C_9 
REMARK       I    between atoms: C_9  and  N_10 
REMARK    4  A    between atoms: C_23  and  O_24 
REMARK    5  A    between atoms: C_23  and  O_25 
ROOT
ATOM      1  N           0     135.384 130.736 143.269  0.00  0.00    -0.235 N 
ATOM      2  H           0     135.358 130.960 142.326  0.00  0.00     0.174 HD
ATOM      3  H           0     134.782 130.063 143.625  0.00  0.00     0.174 HD
ATOM      4  C           0     136.231 131.335 144.059  0.00  0.00     0.672 C 
ATOM      5  N           0     137.113 132.298 143.599  0.00  0.00    -0.218 N 
ATOM      6  C           0     137.556 133.331 144.530  0.00  0.00     0.151 C 
ATOM      7  C           0     138.081 132.757 145.832  0.00  0.00     0.180 C 
ATOM      8  N           0     139.442 132.223 145.614  0.00  0.00    -0.216 N 
ATOM      9  C           0     139.547 131.053 146.327  0.00  0.00     0.670 C 
ATOM     10  N           0     140.678 130.501 146.667  0.00  0.00    -0.235 N 
ATOM     11  H           0     141.516 130.919 146.415  0.00  0.00     0.174 HD
ATOM     12  H           0     140.680 129.674 147.172  0.00  0.00     0.174 HD
ATOM     13  C           0     137.296 131.561 146.346  0.00  0.00     0.217 C 
ATOM     14  N           0     138.313 130.538 146.639  0.00  0.00    -0.191 N 
ATOM     15  N           0     136.302 131.056 145.398  0.00  0.00    -0.183 N 
ATOM     16  C           0     135.374 130.241 146.204  0.00  0.00     0.150 C 
ATOM     17  C           0     135.232 131.024 147.532  0.00  0.00     0.093 C 
ATOM     18  C           0     136.509 131.897 147.625  0.00  0.00     0.209 C 
ATOM     19  H           0     137.429 132.285 142.682  0.00  0.00     0.178 HD
ATOM     20  H           0     140.135 132.624 145.067  0.00  0.00     0.178 HD
ATOM     21  H           0     138.141 129.652 146.994  0.00  0.00     0.180 HD
ENDROOT
BRANCH   6  22
ATOM     22  C           0     136.378 134.256 144.838  0.00  0.00     0.208 C 
BRANCH  22  23
ATOM     23  O           0     136.045 135.027 143.655  0.00  0.00    -0.302 OA
BRANCH  23  24
ATOM     24  C           0     134.840 134.879 143.071  0.00  0.00     0.358 C 
ATOM     25  N           0     134.266 135.921 142.438  0.00  0.00    -0.346 N 
ATOM     26  H           0     134.720 136.778 142.402  0.00  0.00     0.161 HD
ATOM     27  H           0     133.398 135.815 142.017  0.00  0.00     0.161 HD
ATOM     28  O           0     134.272 133.806 143.115  0.00  0.00    -0.239 OA
ENDBRANCH  23  24
ENDBRANCH  22  23
ENDBRANCH   6  22
BRANCH  18  29
ATOM     29  O           0     137.265 131.551 148.786  0.00  0.00    -0.362 OA
ATOM     30  H           0     137.165 130.597 148.911  0.00  0.00     0.213 HD
ENDBRANCH  18  29
BRANCH  18  31
ATOM     31  O           0     136.165 133.283 147.647  0.00  0.00    -0.362 OA
ATOM     32  H           0     136.962 133.765 147.908  0.00  0.00     0.213 HD
ENDBRANCH  18  31
TORSDOF 5
ENDMDL
