# created with PyMOL 2.3.4
@<TRIPOS>MOLECULE
ligand_out_0001
32 34 1                 
SMALL
USER_CHARGES
@<TRIPOS>ATOM
1	   N	135.049	136.774	143.157	N.3	1	UNK0	-0.235	
2	   N	133.787	134.792	143.032	N.3	1	UNK0	-0.218	
3	   N	134.093	132.188	144.649	N.3	1	UNK0	-0.216	
4	   N	134.871	131.659	146.820	N.3	1	UNK0	-0.235	
5	   N	136.103	133.007	145.319	N.3	1	UNK0	-0.191	
6	   N	136.048	134.703	143.595	N.3	1	UNK0	-0.183	
7	   N	133.548	136.015	139.885	N.pl3	1	UNK0	-0.346	
8	   C	134.968	135.477	143.260	C.3	1	UNK0	0.672	
9	   C	133.868	133.415	142.551	C.3	1	UNK0	0.151	
10	   C	134.787	132.555	143.397	C.3	1	UNK0	0.180	
11	   C	135.013	132.249	145.667	C.3	1	UNK0	0.670	
12	   C	136.044	133.267	143.871	C.3	1	UNK0	0.217	
13	   C	137.460	135.116	143.698	C.3	1	UNK0	0.150	
14	   C	138.249	133.941	143.071	C.3	1	UNK0	0.093	
15	   C	137.308	132.715	143.189	C.3	1	UNK0	0.209	
16	   C	134.388	133.425	141.113	C.2	1	UNK0	0.208	
17	   C	133.370	134.779	139.379	C.2	1	UNK0	0.358	
18	   O	133.294	133.718	140.204	O.2	1	UNK0	-0.302	
19	   O	133.278	134.622	138.178	O.co2	1	UNK0	-0.239	
20	   O	137.912	131.700	143.993	O.2	1	UNK0	-0.362	
21	   O	136.991	132.203	141.893	O.2	1	UNK0	-0.362	
22	   H	134.265	137.291	142.914	 H	1	UNK0	0.174	
23	   H	135.892	137.223	143.327	 H	1	UNK0	0.174	
24	   H	134.074	131.136	147.002	 H	1	UNK0	0.174	
25	   H	135.561	131.742	147.496	 H	1	UNK0	0.174	
26	   H	132.929	135.215	143.188	 H	1	UNK0	0.178	
27	   H	133.157	131.948	144.738	 H	1	UNK0	0.178	
28	   H	136.795	133.318	145.923	 H	1	UNK0	0.180	
29	   H	133.622	136.141	140.845	 H	1	UNK0	0.161	
30	   H	133.602	136.780	139.291	 H	1	UNK0	0.161	
31	   H	138.250	131.027	143.386	 H	1	UNK0	0.213	
32	   H	136.035	132.052	141.879	 H	1	UNK0	0.213	
@<TRIPOS>BOND
1 1 8 1
2 1 22 1
3 1 23 1
4 2 9 1
5 2 26 1
6 3 11 1
7 3 27 1
8 4 24 1
9 4 25 1
10 5 28 1
11 6 13 1
12 7 29 1
13 7 30 1
14 2 8 1
15 6 8 1
16 9 10 1
17 9 16 1
18 3 10 1
19 10 12 1
20 4 11 1
21 5 11 1
22 5 12 1
23 6 12 1
24 12 15 1
25 13 14 1
26 14 15 1
27 15 20 2
28 15 21 2
29 16 18 2
30 7 17 1
31 17 19 2
32 17 18 2
33 20 31 1
34 21 32 1
@<TRIPOS>SUBSTRUCTURE
1	UNK0	1	GROUP	1 ****	UNK
