# created with PyMOL 2.3.4
@<TRIPOS>MOLECULE
ligand_out_0001
32 34 1                 
SMALL
USER_CHARGES
@<TRIPOS>ATOM
1	   N	135.408	132.491	146.870	N.3	1	UNK0	-0.235	
2	   N	136.662	134.297	146.033	N.3	1	UNK0	-0.218	
3	   N	136.089	136.103	143.605	N.3	1	UNK0	-0.216	
4	   N	134.127	136.845	142.508	N.3	1	UNK0	-0.235	
5	   N	134.521	134.568	143.013	N.3	1	UNK0	-0.191	
6	   N	135.427	132.959	144.577	N.3	1	UNK0	-0.183	
7	   C	135.812	133.218	145.866	C.3	1	UNK0	0.672	
8	   C	137.545	134.661	144.928	C.3	1	UNK0	0.151	
9	   C	136.806	134.810	143.613	C.3	1	UNK0	0.180	
10	   C	134.867	135.897	143.011	C.3	1	UNK0	0.670	
11	   C	135.705	133.782	143.399	C.3	1	UNK0	0.217	
12	   C	134.704	131.780	144.067	C.3	1	UNK0	0.150	
13	   C	135.399	131.457	142.722	C.3	1	UNK0	0.093	
14	   C	136.060	132.787	142.279	C.3	1	UNK0	0.209	
15	   C	138.612	133.574	144.771	C.2	1	UNK0	0.206	
16	   C	140.179	132.370	146.169	C.2	1	UNK0	0.262	
17	   C	140.057	131.309	147.233	C.3	1	UNK0	0.077	
18	   C	138.669	130.671	147.160	C.3	1	UNK0	0.020	
19	   C	141.124	130.236	147.008	C.3	1	UNK0	0.020	
20	   O	139.236	133.320	146.057	O.2	1	UNK0	-0.319	
21	   O	141.125	132.367	145.418	O.co2	1	UNK0	-0.265	
22	   O	135.518	133.222	141.030	O.2	1	UNK0	-0.362	
23	   O	137.477	132.632	142.184	O.2	1	UNK0	-0.362	
24	   H	135.703	132.700	147.769	 H	1	UNK0	0.174	
25	   H	134.809	131.744	146.717	 H	1	UNK0	0.174	
26	   H	134.431	137.765	142.539	 H	1	UNK0	0.174	
27	   H	133.273	136.630	142.102	 H	1	UNK0	0.174	
28	   H	136.671	134.800	146.863	 H	1	UNK0	0.178	
29	   H	136.420	136.945	143.954	 H	1	UNK0	0.178	
30	   H	133.648	134.208	142.795	 H	1	UNK0	0.180	
31	   H	134.592	132.945	141.016	 H	1	UNK0	0.213	
32	   H	137.864	133.147	142.906	 H	1	UNK0	0.213	
@<TRIPOS>BOND
1 1 7 1
2 1 24 1
3 1 25 1
4 2 8 1
5 2 28 1
6 3 10 1
7 3 29 1
8 4 26 1
9 4 27 1
10 5 30 1
11 6 12 1
12 2 7 1
13 6 7 1
14 8 9 1
15 8 15 1
16 3 9 1
17 9 11 1
18 4 10 1
19 5 10 1
20 5 11 1
21 6 11 1
22 11 14 1
23 12 13 1
24 13 14 1
25 14 22 2
26 14 23 2
27 15 20 2
28 16 17 1
29 16 21 2
30 17 18 1
31 17 19 1
32 16 20 2
33 22 31 1
34 23 32 1
@<TRIPOS>SUBSTRUCTURE
1	UNK0	1	GROUP	1 ****	UNK
