# created with PyMOL 2.3.4
@<TRIPOS>MOLECULE
ligand_out_0001
30 32 1                 
SMALL
USER_CHARGES
@<TRIPOS>ATOM
1	   N	134.864	132.205	146.603	N.3	1	UNK0	-0.235	
2	   N	136.500	133.782	145.995	N.3	1	UNK0	-0.218	
3	   N	136.536	135.738	143.606	N.3	1	UNK0	-0.216	
4	   N	134.441	136.800	143.335	N.3	1	UNK0	-0.235	
5	   N	134.798	134.526	142.784	N.3	1	UNK0	-0.194	
6	   N	135.223	132.731	144.351	N.3	1	UNK0	-0.186	
7	   N	139.964	130.492	146.981	N.pl3	1	UNK0	-0.337	
8	   C	135.500	132.878	145.685	C.3	1	UNK0	0.672	
9	   C	137.550	134.017	145.008	C.3	1	UNK0	0.151	
10	   C	137.000	134.337	143.632	C.3	1	UNK0	0.177	
11	   C	135.212	135.752	143.247	C.3	1	UNK0	0.670	
12	   C	135.768	133.531	143.255	C.3	1	UNK0	0.187	
13	   C	134.360	131.724	143.708	C.3	1	UNK0	0.147	
14	   C	135.123	131.330	142.421	C.3	1	UNK0	0.057	
15	   C	136.057	132.520	142.133	C.2	1	UNK0	0.172	
16	   C	138.424	132.765	144.910	C.2	1	UNK0	0.208	
17	   C	140.065	131.656	146.309	C.2	1	UNK0	0.362	
18	   C	141.125	129.604	147.087	C.3	1	UNK0	0.154	
19	   C	138.695	130.115	147.606	C.3	1	UNK0	0.154	
20	   O	138.998	132.472	146.212	O.2	1	UNK0	-0.302	
21	   O	141.118	131.969	145.790	O.co2	1	UNK0	-0.238	
22	   O	135.748	133.103	140.866	O.2	1	UNK0	-0.391	
23	   H	135.088	132.331	147.539	 H	1	UNK0	0.174	
24	   H	134.165	131.581	146.352	 H	1	UNK0	0.174	
25	   H	134.797	137.637	143.672	 H	1	UNK0	0.174	
26	   H	133.512	136.741	143.063	 H	1	UNK0	0.174	
27	   H	136.502	134.250	146.845	 H	1	UNK0	0.178	
28	   H	137.076	136.518	143.807	 H	1	UNK0	0.178	
29	   H	134.009	134.350	142.247	 H	1	UNK0	0.180	
30	   H	134.845	132.832	140.648	 H	1	UNK0	0.210	
@<TRIPOS>BOND
1 1 8 1
2 1 23 1
3 1 24 1
4 2 9 1
5 2 27 1
6 3 11 1
7 3 28 1
8 4 25 1
9 4 26 1
10 5 29 1
11 6 13 1
12 7 18 1
13 7 19 1
14 2 8 1
15 6 8 1
16 9 10 1
17 9 16 1
18 3 10 1
19 10 12 1
20 4 11 1
21 5 11 1
22 5 12 1
23 6 12 1
24 12 15 1
25 13 14 1
26 14 15 1
27 15 22 2
28 16 20 2
29 7 17 1
30 17 21 2
31 17 20 2
32 22 30 1
@<TRIPOS>SUBSTRUCTURE
1	UNK0	1	GROUP	1 ****	UNK
