MODEL 1
REMARK VINA RESULT:      -7.1      0.000      0.000
REMARK  4 active torsions:
REMARK  status: ('A' for Active; 'I' for Inactive)
REMARK    1  A    between atoms: C_6  and  C_7 
REMARK    2  A    between atoms: C_7  and  O_8 
REMARK    3  A    between atoms: O_8  and  C_9 
REMARK       I    between atoms: C_9  and  N_10 
REMARK    4  A    between atoms: C_25  and  O_26 
ROOT
ATOM      1  N           0     134.864 132.205 146.603  0.00  0.00    -0.235 N 
ATOM      2  H           0     135.088 132.331 147.539  0.00  0.00     0.174 HD
ATOM      3  H           0     134.165 131.581 146.352  0.00  0.00     0.174 HD
ATOM      4  C           0     135.500 132.878 145.685  0.00  0.00     0.672 C 
ATOM      5  N           0     136.500 133.782 145.995  0.00  0.00    -0.218 N 
ATOM      6  C           0     137.550 134.017 145.008  0.00  0.00     0.151 C 
ATOM      7  C           0     137.000 134.337 143.632  0.00  0.00     0.177 C 
ATOM      8  N           0     136.536 135.738 143.606  0.00  0.00    -0.216 N 
ATOM      9  C           0     135.212 135.752 143.247  0.00  0.00     0.670 C 
ATOM     10  N           0     134.441 136.800 143.335  0.00  0.00    -0.235 N 
ATOM     11  H           0     134.797 137.637 143.672  0.00  0.00     0.174 HD
ATOM     12  H           0     133.512 136.741 143.063  0.00  0.00     0.174 HD
ATOM     13  C           0     135.768 133.531 143.255  0.00  0.00     0.187 C 
ATOM     14  N           0     134.798 134.526 142.784  0.00  0.00    -0.194 N 
ATOM     15  N           0     135.223 132.731 144.351  0.00  0.00    -0.186 N 
ATOM     16  C           0     134.360 131.724 143.708  0.00  0.00     0.147 C 
ATOM     17  C           0     135.123 131.330 142.421  0.00  0.00     0.057 C 
ATOM     18  C           0     136.057 132.520 142.133  0.00  0.00     0.172 C 
ATOM     19  H           0     136.502 134.250 146.845  0.00  0.00     0.178 HD
ATOM     20  H           0     137.076 136.518 143.807  0.00  0.00     0.178 HD
ATOM     21  H           0     134.009 134.350 142.247  0.00  0.00     0.180 HD
ENDROOT
BRANCH   6  22
ATOM     22  C           0     138.424 132.765 144.910  0.00  0.00     0.208 C 
BRANCH  22  23
ATOM     23  O           0     138.998 132.472 146.212  0.00  0.00    -0.302 OA
BRANCH  23  24
ATOM     24  C           0     140.065 131.656 146.309  0.00  0.00     0.362 C 
ATOM     25  N           0     139.964 130.492 146.981  0.00  0.00    -0.337 N 
ATOM     26  C           0     141.125 129.604 147.087  0.00  0.00     0.154 C 
ATOM     27  C           0     138.695 130.115 147.606  0.00  0.00     0.154 C 
ATOM     28  O           0     141.118 131.969 145.790  0.00  0.00    -0.238 OA
ENDBRANCH  23  24
ENDBRANCH  22  23
ENDBRANCH   6  22
BRANCH  18  29
ATOM     29  O           0     135.748 133.103 140.866  0.00  0.00    -0.391 OA
ATOM     30  H           0     134.845 132.832 140.648  0.00  0.00     0.210 HD
ENDBRANCH  18  29
TORSDOF 4
ENDMDL
MODEL 2
REMARK VINA RESULT:      -6.7      3.438      5.315
REMARK  4 active torsions:
REMARK  status: ('A' for Active; 'I' for Inactive)
REMARK    1  A    between atoms: C_6  and  C_7 
REMARK    2  A    between atoms: C_7  and  O_8 
REMARK    3  A    between atoms: O_8  and  C_9 
REMARK       I    between atoms: C_9  and  N_10 
REMARK    4  A    between atoms: C_25  and  O_26 
ROOT
ATOM      1  N           0     136.181 134.776 147.901  0.00  0.00    -0.235 N 
ATOM      2  H           0     136.158 134.984 148.849  0.00  0.00     0.174 HD
ATOM      3  H           0     135.956 135.459 147.251  0.00  0.00     0.174 HD
ATOM      4  C           0     136.518 133.581 147.504  0.00  0.00     0.672 C 
ATOM      5  N           0     136.851 132.575 148.394  0.00  0.00    -0.218 N 
ATOM      6  C           0     136.611 131.191 147.997  0.00  0.00     0.151 C 
ATOM      7  C           0     137.194 130.863 146.637  0.00  0.00     0.177 C 
ATOM      8  N           0     138.651 130.670 146.764  0.00  0.00    -0.216 N 
ATOM      9  C           0     139.284 131.548 145.921  0.00  0.00     0.670 C 
ATOM     10  N           0     140.564 131.790 145.943  0.00  0.00    -0.235 N 
ATOM     11  H           0     141.133 131.335 146.584  0.00  0.00     0.174 HD
ATOM     12  H           0     140.948 132.424 145.318  0.00  0.00     0.174 HD
ATOM     13  C           0     137.056 131.982 145.618  0.00  0.00     0.187 C 
ATOM     14  N           0     138.401 132.143 145.052  0.00  0.00    -0.194 N 
ATOM     15  N           0     136.559 133.238 146.178  0.00  0.00    -0.186 N 
ATOM     16  C           0     136.083 134.020 145.022  0.00  0.00     0.147 C 
ATOM     17  C           0     135.426 132.971 144.094  0.00  0.00     0.057 C 
ATOM     18  C           0     136.064 131.628 144.498  0.00  0.00     0.172 C 
ATOM     19  H           0     137.236 132.785 149.260  0.00  0.00     0.178 HD
ATOM     20  H           0     139.089 130.029 147.345  0.00  0.00     0.178 HD
ATOM     21  H           0     138.624 132.589 144.220  0.00  0.00     0.180 HD
ENDROOT
BRANCH   6  22
ATOM     22  C           0     135.101 130.944 147.959  0.00  0.00     0.208 C 
BRANCH  22  23
ATOM     23  O           0     134.813 129.628 148.503  0.00  0.00    -0.302 OA
BRANCH  23  24
ATOM     24  C           0     134.199 128.704 147.739  0.00  0.00     0.362 C 
ATOM     25  N           0     133.034 128.161 148.145  0.00  0.00    -0.337 N 
ATOM     26  C           0     132.366 127.156 147.315  0.00  0.00     0.154 C 
ATOM     27  C           0     132.436 128.577 149.416  0.00  0.00     0.154 C 
ATOM     28  O           0     134.696 128.360 146.685  0.00  0.00    -0.238 OA
ENDBRANCH  23  24
ENDBRANCH  22  23
ENDBRANCH   6  22
BRANCH  18  29
ATOM     29  O           0     136.766 131.057 143.393  0.00  0.00    -0.391 OA
ATOM     30  H           0     136.525 131.574 142.612  0.00  0.00     0.210 HD
ENDBRANCH  18  29
TORSDOF 4
ENDMDL
MODEL 3
REMARK VINA RESULT:      -6.6      2.039      6.076
REMARK  4 active torsions:
REMARK  status: ('A' for Active; 'I' for Inactive)
REMARK    1  A    between atoms: C_6  and  C_7 
REMARK    2  A    between atoms: C_7  and  O_8 
REMARK    3  A    between atoms: O_8  and  C_9 
REMARK       I    between atoms: C_9  and  N_10 
REMARK    4  A    between atoms: C_25  and  O_26 
ROOT
ATOM      1  N           0     136.715 134.915 144.206  0.00  0.00    -0.235 N 
ATOM      2  H           0     136.083 135.475 143.728  0.00  0.00     0.174 HD
ATOM      3  H           0     137.649 135.172 144.256  0.00  0.00     0.174 HD
ATOM      4  C           0     136.306 133.822 144.787  0.00  0.00     0.672 C 
ATOM      5  N           0     134.984 133.417 144.748  0.00  0.00    -0.218 N 
ATOM      6  C           0     134.693 131.989 144.835  0.00  0.00     0.151 C 
ATOM      7  C           0     135.382 131.323 146.010  0.00  0.00     0.177 C 
ATOM      8  N           0     134.650 131.640 147.251  0.00  0.00    -0.216 N 
ATOM      9  C           0     135.516 132.241 148.128  0.00  0.00     0.670 C 
ATOM     10  N           0     135.147 132.838 149.227  0.00  0.00    -0.235 N 
ATOM     11  H           0     134.208 132.877 149.466  0.00  0.00     0.174 HD
ATOM     12  H           0     135.813 133.244 149.804  0.00  0.00     0.174 HD
ATOM     13  C           0     136.791 131.830 146.271  0.00  0.00     0.187 C 
ATOM     14  N           0     136.819 132.136 147.706  0.00  0.00    -0.194 N 
ATOM     15  N           0     137.161 132.996 145.469  0.00  0.00    -0.186 N 
ATOM     16  C           0     138.632 133.056 145.524  0.00  0.00     0.147 C 
ATOM     17  C           0     139.080 131.576 145.464  0.00  0.00     0.057 C 
ATOM     18  C           0     137.858 130.772 145.947  0.00  0.00     0.172 C 
ATOM     19  H           0     134.267 134.067 144.667  0.00  0.00     0.178 HD
ATOM     20  H           0     133.712 131.455 147.418  0.00  0.00     0.178 HD
ATOM     21  H           0     137.612 132.247 148.254  0.00  0.00     0.180 HD
ENDROOT
BRANCH   6  22
ATOM     22  C           0     135.156 131.312 143.543  0.00  0.00     0.208 C 
BRANCH  22  23
ATOM     23  O           0     134.217 131.612 142.476  0.00  0.00    -0.302 OA
BRANCH  23  24
ATOM     24  C           0     134.402 132.699 141.703  0.00  0.00     0.362 C 
ATOM     25  N           0     133.350 133.275 141.089  0.00  0.00    -0.337 N 
ATOM     26  C           0     133.551 134.457 140.247  0.00  0.00     0.154 C 
ATOM     27  C           0     132.006 132.719 141.262  0.00  0.00     0.154 C 
ATOM     28  O           0     135.517 133.159 141.560  0.00  0.00    -0.238 OA
ENDBRANCH  23  24
ENDBRANCH  22  23
ENDBRANCH   6  22
BRANCH  18  29
ATOM     29  O           0     138.182 130.035 147.128  0.00  0.00    -0.391 OA
ATOM     30  H           0     138.978 130.439 147.499  0.00  0.00     0.210 HD
ENDBRANCH  18  29
TORSDOF 4
ENDMDL
MODEL 4
REMARK VINA RESULT:      -6.5      2.049      5.970
REMARK  4 active torsions:
REMARK  status: ('A' for Active; 'I' for Inactive)
REMARK    1  A    between atoms: C_6  and  C_7 
REMARK    2  A    between atoms: C_7  and  O_8 
REMARK    3  A    between atoms: O_8  and  C_9 
REMARK       I    between atoms: C_9  and  N_10 
REMARK    4  A    between atoms: C_25  and  O_26 
ROOT
ATOM      1  N           0     136.243 134.893 147.752  0.00  0.00    -0.235 N 
ATOM      2  H           0     135.658 135.611 147.462  0.00  0.00     0.174 HD
ATOM      3  H           0     136.809 135.013 148.529  0.00  0.00     0.174 HD
ATOM      4  C           0     136.263 133.765 147.097  0.00  0.00     0.672 C 
ATOM      5  N           0     135.470 133.545 145.985  0.00  0.00    -0.218 N 
ATOM      6  C           0     135.943 132.606 144.972  0.00  0.00     0.151 C 
ATOM      7  C           0     136.356 131.271 145.560  0.00  0.00     0.177 C 
ATOM      8  N           0     135.150 130.476 145.864  0.00  0.00    -0.216 N 
ATOM      9  C           0     135.167 130.149 147.196  0.00  0.00     0.670 C 
ATOM     10  N           0     134.153 129.639 147.837  0.00  0.00    -0.235 N 
ATOM     11  H           0     133.320 129.469 147.371  0.00  0.00     0.174 HD
ATOM     12  H           0     134.233 129.430 148.781  0.00  0.00     0.174 HD
ATOM     13  C           0     137.076 131.377 146.894  0.00  0.00     0.187 C 
ATOM     14  N           0     136.384 130.425 147.771  0.00  0.00    -0.194 N 
ATOM     15  N           0     137.076 132.724 147.463  0.00  0.00    -0.186 N 
ATOM     16  C           0     138.152 132.723 148.470  0.00  0.00     0.147 C 
ATOM     17  C           0     139.275 131.872 147.830  0.00  0.00     0.057 C 
ATOM     18  C           0     138.561 130.994 146.785  0.00  0.00     0.172 C 
ATOM     19  H           0     134.620 134.001 145.882  0.00  0.00     0.178 HD
ATOM     20  H           0     134.461 130.227 145.229  0.00  0.00     0.178 HD
ATOM     21  H           0     136.724 130.061 148.604  0.00  0.00     0.180 HD
ENDROOT
BRANCH   6  22
ATOM     22  C           0     137.145 133.220 144.252  0.00  0.00     0.208 C 
BRANCH  22  23
ATOM     23  O           0     136.689 133.936 143.074  0.00  0.00    -0.302 OA
BRANCH  23  24
ATOM     24  C           0     135.656 133.460 142.354  0.00  0.00     0.362 C 
ATOM     25  N           0     134.525 134.183 142.238  0.00  0.00    -0.337 N 
ATOM     26  C           0     133.400 133.665 141.456  0.00  0.00     0.154 C 
ATOM     27  C           0     134.420 135.488 142.895  0.00  0.00     0.154 C 
ATOM     28  O           0     135.743 132.377 141.810  0.00  0.00    -0.238 OA
ENDBRANCH  23  24
ENDBRANCH  22  23
ENDBRANCH   6  22
BRANCH  18  29
ATOM     29  O           0     138.727 129.610 147.098  0.00  0.00    -0.391 OA
ATOM     30  H           0     137.913 129.164 146.828  0.00  0.00     0.210 HD
ENDBRANCH  18  29
TORSDOF 4
ENDMDL
MODEL 5
REMARK VINA RESULT:      -6.4      2.436      6.507
REMARK  4 active torsions:
REMARK  status: ('A' for Active; 'I' for Inactive)
REMARK    1  A    between atoms: C_6  and  C_7 
REMARK    2  A    between atoms: C_7  and  O_8 
REMARK    3  A    between atoms: O_8  and  C_9 
REMARK       I    between atoms: C_9  and  N_10 
REMARK    4  A    between atoms: C_25  and  O_26 
ROOT
ATOM      1  N           0     133.627 131.648 148.745  0.00  0.00    -0.235 N 
ATOM      2  H           0     132.796 131.228 148.472  0.00  0.00     0.174 HD
ATOM      3  H           0     133.664 132.161 149.567  0.00  0.00     0.174 HD
ATOM      4  C           0     134.696 131.516 148.010  0.00  0.00     0.672 C 
ATOM      5  N           0     134.695 130.789 146.832  0.00  0.00    -0.218 N 
ATOM      6  C           0     135.641 131.165 145.786  0.00  0.00     0.151 C 
ATOM      7  C           0     137.064 131.280 146.297  0.00  0.00     0.177 C 
ATOM      8  N           0     137.636 129.929 146.456  0.00  0.00    -0.216 N 
ATOM      9  C           0     138.043 129.777 147.757  0.00  0.00     0.670 C 
ATOM     10  N           0     138.393 128.639 148.286  0.00  0.00    -0.235 N 
ATOM     11  H           0     138.375 127.829 147.752  0.00  0.00     0.174 HD
ATOM     12  H           0     138.671 128.602 149.215  0.00  0.00     0.174 HD
ATOM     13  C           0     137.177 131.895 147.682  0.00  0.00     0.187 C 
ATOM     14  N           0     138.036 130.973 148.434  0.00  0.00    -0.194 N 
ATOM     15  N           0     135.891 132.094 148.351  0.00  0.00    -0.186 N 
ATOM     16  C           0     136.156 133.066 149.426  0.00  0.00     0.147 C 
ATOM     17  C           0     137.161 134.064 148.802  0.00  0.00     0.057 C 
ATOM     18  C           0     137.823 133.290 147.646  0.00  0.00     0.172 C 
ATOM     19  H           0     134.082 130.048 146.706  0.00  0.00     0.178 HD
ATOM     20  H           0     137.712 129.260 145.758  0.00  0.00     0.178 HD
ATOM     21  H           0     138.508 131.172 149.258  0.00  0.00     0.180 HD
ENDROOT
BRANCH   6  22
ATOM     22  C           0     135.218 132.514 145.199  0.00  0.00     0.208 C 
BRANCH  22  23
ATOM     23  O           0     135.465 132.517 143.768  0.00  0.00    -0.302 OA
BRANCH  23  24
ATOM     24  C           0     134.455 132.273 142.910  0.00  0.00     0.362 C 
ATOM     25  N           0     133.819 133.298 142.309  0.00  0.00    -0.337 N 
ATOM     26  C           0     132.721 133.032 141.377  0.00  0.00     0.154 C 
ATOM     27  C           0     134.225 134.677 142.589  0.00  0.00     0.154 C 
ATOM     28  O           0     134.119 131.129 142.679  0.00  0.00    -0.238 OA
ENDBRANCH  23  24
ENDBRANCH  22  23
ENDBRANCH   6  22
BRANCH  18  29
ATOM     29  O           0     139.230 133.176 147.863  0.00  0.00    -0.391 OA
ATOM     30  H           0     139.629 133.998 147.544  0.00  0.00     0.210 HD
ENDBRANCH  18  29
TORSDOF 4
ENDMDL
MODEL 6
REMARK VINA RESULT:      -6.4      9.593     12.923
REMARK  4 active torsions:
REMARK  status: ('A' for Active; 'I' for Inactive)
REMARK    1  A    between atoms: C_6  and  C_7 
REMARK    2  A    between atoms: C_7  and  O_8 
REMARK    3  A    between atoms: O_8  and  C_9 
REMARK       I    between atoms: C_9  and  N_10 
REMARK    4  A    between atoms: C_25  and  O_26 
ROOT
ATOM      1  N           0     131.644 137.363 132.597  0.00  0.00    -0.235 N 
ATOM      2  H           0     130.814 137.838 132.435  0.00  0.00     0.174 HD
ATOM      3  H           0     132.470 137.683 132.202  0.00  0.00     0.174 HD
ATOM      4  C           0     131.649 136.298 133.349  0.00  0.00     0.672 C 
ATOM      5  N           0     130.497 135.807 133.938  0.00  0.00    -0.218 N 
ATOM      6  C           0     130.417 134.376 134.214  0.00  0.00     0.151 C 
ATOM      7  C           0     131.623 133.857 134.973  0.00  0.00     0.177 C 
ATOM      8  N           0     131.502 134.231 136.395  0.00  0.00    -0.216 N 
ATOM      9  C           0     132.608 134.959 136.751  0.00  0.00     0.670 C 
ATOM     10  N           0     132.720 135.622 137.868  0.00  0.00    -0.235 N 
ATOM     11  H           0     131.991 135.620 138.508  0.00  0.00     0.174 HD
ATOM     12  H           0     133.532 136.117 138.058  0.00  0.00     0.174 HD
ATOM     13  C           0     132.941 134.476 134.538  0.00  0.00     0.187 C 
ATOM     14  N           0     133.585 134.904 135.786  0.00  0.00    -0.194 N 
ATOM     15  N           0     132.795 135.591 133.603  0.00  0.00    -0.186 N 
ATOM     16  C           0     134.119 135.751 132.976  0.00  0.00     0.147 C 
ATOM     17  C           0     134.632 134.303 132.787  0.00  0.00     0.057 C 
ATOM     18  C           0     133.844 133.466 133.811  0.00  0.00     0.172 C 
ATOM     19  H           0     129.763 136.400 134.164  0.00  0.00     0.178 HD
ATOM     20  H           0     130.764 134.000 136.981  0.00  0.00     0.178 HD
ATOM     21  H           0     134.525 135.112 135.905  0.00  0.00     0.180 HD
ENDROOT
BRANCH   6  22
ATOM     22  C           0     130.310 133.623 132.886  0.00  0.00     0.208 C 
BRANCH  22  23
ATOM     23  O           0     130.598 132.216 133.103  0.00  0.00    -0.302 OA
BRANCH  23  24
ATOM     24  C           0     129.817 131.274 132.542  0.00  0.00     0.362 C 
ATOM     25  N           0     130.248 130.000 132.463  0.00  0.00    -0.337 N 
ATOM     26  C           0     129.398 128.975 131.852  0.00  0.00     0.154 C 
ATOM     27  C           0     131.568 129.640 132.987  0.00  0.00     0.154 C 
ATOM     28  O           0     128.723 131.574 132.106  0.00  0.00    -0.238 OA
ENDBRANCH  23  24
ENDBRANCH  22  23
ENDBRANCH   6  22
BRANCH  18  29
ATOM     29  O           0     134.735 132.854 134.746  0.00  0.00    -0.391 OA
ATOM     30  H           0     135.454 132.463 134.231  0.00  0.00     0.210 HD
ENDBRANCH  18  29
TORSDOF 4
ENDMDL
MODEL 7
REMARK VINA RESULT:      -6.4     11.088     12.604
REMARK  4 active torsions:
REMARK  status: ('A' for Active; 'I' for Inactive)
REMARK    1  A    between atoms: C_6  and  C_7 
REMARK    2  A    between atoms: C_7  and  O_8 
REMARK    3  A    between atoms: O_8  and  C_9 
REMARK       I    between atoms: C_9  and  N_10 
REMARK    4  A    between atoms: C_25  and  O_26 
ROOT
ATOM      1  N           0     133.863 133.486 131.965  0.00  0.00    -0.235 N 
ATOM      2  H           0     133.812 132.821 131.261  0.00  0.00     0.174 HD
ATOM      3  H           0     134.714 133.898 132.182  0.00  0.00     0.174 HD
ATOM      4  C           0     132.787 133.830 132.616  0.00  0.00     0.672 C 
ATOM      5  N           0     131.550 133.275 132.340  0.00  0.00    -0.218 N 
ATOM      6  C           0     130.569 133.198 133.418  0.00  0.00     0.151 C 
ATOM      7  C           0     130.371 134.524 134.125  0.00  0.00     0.177 C 
ATOM      8  N           0     129.523 135.399 133.293  0.00  0.00    -0.216 N 
ATOM      9  C           0     130.208 136.561 133.042  0.00  0.00     0.670 C 
ATOM     10  N           0     129.838 137.453 132.167  0.00  0.00    -0.235 N 
ATOM     11  H           0     129.033 137.316 131.645  0.00  0.00     0.174 HD
ATOM     12  H           0     130.370 138.254 132.038  0.00  0.00     0.174 HD
ATOM     13  C           0     131.651 135.322 134.316  0.00  0.00     0.187 C 
ATOM     14  N           0     131.332 136.667 133.825  0.00  0.00    -0.194 N 
ATOM     15  N           0     132.810 134.760 133.622  0.00  0.00    -0.186 N 
ATOM     16  C           0     133.985 135.377 134.264  0.00  0.00     0.147 C 
ATOM     17  C           0     133.612 135.444 135.764  0.00  0.00     0.057 C 
ATOM     18  C           0     132.073 135.397 135.793  0.00  0.00     0.172 C 
ATOM     19  H           0     131.340 132.947 131.451  0.00  0.00     0.178 HD
ATOM     20  H           0     128.630 135.189 132.978  0.00  0.00     0.178 HD
ATOM     21  H           0     131.826 137.480 134.016  0.00  0.00     0.180 HD
ENDROOT
BRANCH   6  22
ATOM     22  C           0     131.040 132.160 134.440  0.00  0.00     0.208 C 
BRANCH  22  23
ATOM     23  O           0     131.463 130.956 133.747  0.00  0.00    -0.302 OA
BRANCH  23  24
ATOM     24  C           0     132.698 130.461 133.952  0.00  0.00     0.362 C 
ATOM     25  N           0     133.395 129.941 132.922  0.00  0.00    -0.337 N 
ATOM     26  C           0     134.739 129.402 133.145  0.00  0.00     0.154 C 
ATOM     27  C           0     132.809 129.914 131.581  0.00  0.00     0.154 C 
ATOM     28  O           0     133.184 130.483 135.066  0.00  0.00    -0.238 OA
ENDBRANCH  23  24
ENDBRANCH  22  23
ENDBRANCH   6  22
BRANCH  18  29
ATOM     29  O           0     131.548 136.587 136.385  0.00  0.00    -0.391 OA
ATOM     30  H           0     130.862 136.915 135.788  0.00  0.00     0.210 HD
ENDBRANCH  18  29
TORSDOF 4
ENDMDL
MODEL 8
REMARK VINA RESULT:      -6.4      2.789      5.957
REMARK  4 active torsions:
REMARK  status: ('A' for Active; 'I' for Inactive)
REMARK    1  A    between atoms: C_6  and  C_7 
REMARK    2  A    between atoms: C_7  and  O_8 
REMARK    3  A    between atoms: O_8  and  C_9 
REMARK       I    between atoms: C_9  and  N_10 
REMARK    4  A    between atoms: C_25  and  O_26 
ROOT
ATOM      1  N           0     138.893 130.508 145.985  0.00  0.00    -0.235 N 
ATOM      2  H           0     139.544 130.615 145.274  0.00  0.00     0.174 HD
ATOM      3  H           0     138.953 129.749 146.586  0.00  0.00     0.174 HD
ATOM      4  C           0     137.943 131.387 146.136  0.00  0.00     0.672 C 
ATOM      5  N           0     137.820 132.489 145.309  0.00  0.00    -0.218 N 
ATOM      6  C           0     136.490 133.056 145.102  0.00  0.00     0.151 C 
ATOM      7  C           0     135.763 133.329 146.404  0.00  0.00     0.177 C 
ATOM      8  N           0     136.295 134.565 147.011  0.00  0.00    -0.216 N 
ATOM      9  C           0     136.752 134.271 148.271  0.00  0.00     0.670 C 
ATOM     10  N           0     137.473 135.080 148.995  0.00  0.00    -0.235 N 
ATOM     11  H           0     137.720 135.952 148.648  0.00  0.00     0.174 HD
ATOM     12  H           0     137.764 134.809 149.879  0.00  0.00     0.174 HD
ATOM     13  C           0     135.981 132.269 147.471  0.00  0.00     0.187 C 
ATOM     14  N           0     136.355 133.019 148.675  0.00  0.00    -0.194 N 
ATOM     15  N           0     136.997 131.276 147.122  0.00  0.00    -0.186 N 
ATOM     16  C           0     136.754 130.136 148.024  0.00  0.00     0.147 C 
ATOM     17  C           0     135.213 130.046 148.122  0.00  0.00     0.057 C 
ATOM     18  C           0     134.708 131.452 147.746  0.00  0.00     0.172 C 
ATOM     19  H           0     138.598 132.876 144.878  0.00  0.00     0.178 HD
ATOM     20  H           0     136.318 135.438 146.590  0.00  0.00     0.178 HD
ATOM     21  H           0     136.330 132.690 149.587  0.00  0.00     0.180 HD
ENDROOT
BRANCH   6  22
ATOM     22  C           0     135.660 132.076 144.270  0.00  0.00     0.208 C 
BRANCH  22  23
ATOM     23  O           0     134.381 132.683 143.943  0.00  0.00    -0.302 OA
BRANCH  23  24
ATOM     24  C           0     134.001 132.796 142.656  0.00  0.00     0.362 C 
ATOM     25  N           0     133.981 134.007 142.064  0.00  0.00    -0.337 N 
ATOM     26  C           0     133.567 134.131 140.664  0.00  0.00     0.154 C 
ATOM     27  C           0     134.374 135.198 142.820  0.00  0.00     0.154 C 
ATOM     28  O           0     133.674 131.808 142.030  0.00  0.00    -0.238 OA
ENDBRANCH  23  24
ENDBRANCH  22  23
ENDBRANCH   6  22
BRANCH  18  29
ATOM     29  O           0     133.988 132.031 148.835  0.00  0.00    -0.391 OA
ATOM     30  H           0     133.051 132.002 148.597  0.00  0.00     0.210 HD
ENDBRANCH  18  29
TORSDOF 4
ENDMDL
MODEL 9
REMARK VINA RESULT:      -6.4      2.791      6.167
REMARK  4 active torsions:
REMARK  status: ('A' for Active; 'I' for Inactive)
REMARK    1  A    between atoms: C_6  and  C_7 
REMARK    2  A    between atoms: C_7  and  O_8 
REMARK    3  A    between atoms: O_8  and  C_9 
REMARK       I    between atoms: C_9  and  N_10 
REMARK    4  A    between atoms: C_25  and  O_26 
ROOT
ATOM      1  N           0     134.942 132.747 149.796  0.00  0.00    -0.235 N 
ATOM      2  H           0     134.398 133.540 149.671  0.00  0.00     0.174 HD
ATOM      3  H           0     135.271 132.519 150.680  0.00  0.00     0.174 HD
ATOM      4  C           0     135.227 131.984 148.778  0.00  0.00     0.672 C 
ATOM      5  N           0     134.778 132.264 147.499  0.00  0.00    -0.218 N 
ATOM      6  C           0     135.578 131.804 146.368  0.00  0.00     0.151 C 
ATOM      7  C           0     135.928 130.332 146.460  0.00  0.00     0.177 C 
ATOM      8  N           0     134.754 129.525 146.075  0.00  0.00    -0.216 N 
ATOM      9  C           0     134.444 128.683 147.112  0.00  0.00     0.670 C 
ATOM     10  N           0     133.342 127.991 147.189  0.00  0.00    -0.235 N 
ATOM     11  H           0     132.679 128.055 146.484  0.00  0.00     0.174 HD
ATOM     12  H           0     133.185 127.413 147.952  0.00  0.00     0.174 HD
ATOM     13  C           0     136.257 129.860 147.866  0.00  0.00     0.187 C 
ATOM     14  N           0     135.439 128.657 148.060  0.00  0.00    -0.194 N 
ATOM     15  N           0     135.996 130.857 148.904  0.00  0.00    -0.186 N 
ATOM     16  C           0     136.764 130.408 150.079  0.00  0.00     0.147 C 
ATOM     17  C           0     138.082 129.853 149.487  0.00  0.00     0.057 C 
ATOM     18  C           0     137.745 129.504 148.026  0.00  0.00     0.172 C 
ATOM     19  H           0     133.951 132.753 147.359  0.00  0.00     0.178 HD
ATOM     20  H           0     134.280 129.581 145.230  0.00  0.00     0.178 HD
ATOM     21  H           0     135.574 127.974 148.735  0.00  0.00     0.180 HD
ENDROOT
BRANCH   6  22
ATOM     22  C           0     136.873 132.617 146.316  0.00  0.00     0.208 C 
BRANCH  22  23
ATOM     23  O           0     136.866 133.464 145.136  0.00  0.00    -0.302 OA
BRANCH  23  24
ATOM     24  C           0     136.704 132.918 143.917  0.00  0.00     0.362 C 
ATOM     25  N           0     135.761 133.399 143.083  0.00  0.00    -0.337 N 
ATOM     26  C           0     135.585 132.804 141.755  0.00  0.00     0.154 C 
ATOM     27  C           0     134.913 134.515 143.504  0.00  0.00     0.154 C 
ATOM     28  O           0     137.409 131.991 143.568  0.00  0.00    -0.238 OA
ENDBRANCH  23  24
ENDBRANCH  22  23
ENDBRANCH   6  22
BRANCH  18  29
ATOM     29  O           0     137.935 128.107 147.790  0.00  0.00    -0.391 OA
ATOM     30  H           0     137.073 127.685 147.911  0.00  0.00     0.210 HD
ENDBRANCH  18  29
TORSDOF 4
ENDMDL
