# created with PyMOL 2.3.4
@<TRIPOS>MOLECULE
ligand_out_0001
33 35 1                 
SMALL
USER_CHARGES
@<TRIPOS>ATOM
1	   N	136.205	130.726	143.174	N.3	1	UNK0	-0.235	
2	   N	135.019	132.118	144.655	N.3	1	UNK0	-0.218	
3	   N	134.829	135.193	144.703	N.3	1	UNK0	-0.216	
4	   N	134.949	136.894	143.063	N.3	1	UNK0	-0.235	
5	   N	136.570	135.181	143.243	N.3	1	UNK0	-0.194	
6	   N	137.023	132.852	143.716	N.3	1	UNK0	-0.185	
7	   N	137.916	130.210	146.408	N.pl3	1	UNK0	-0.346	
8	   C	136.090	131.855	143.819	C.3	1	UNK0	0.672	
9	   C	135.224	133.035	145.773	C.3	1	UNK0	0.151	
10	   C	135.856	134.345	145.347	C.3	1	UNK0	0.178	
11	   C	135.420	135.821	143.634	C.3	1	UNK0	0.670	
12	   C	136.929	134.200	144.280	C.3	1	UNK0	0.192	
13	   C	138.349	132.789	143.075	C.3	1	UNK0	0.147	
14	   C	139.276	133.574	144.033	C.3	1	UNK0	0.063	
15	   C	138.332	134.510	144.829	C.3	1	UNK0	0.106	
16	   C	136.134	132.362	146.802	C.2	1	UNK0	0.208	
17	   C	136.728	130.021	147.017	C.2	1	UNK0	0.358	
18	   C	138.401	134.192	146.324	C.3	1	UNK0	0.042	
19	   C	139.632	133.329	146.605	C.3	1	UNK0	-0.001	
20	   C	140.004	133.438	148.086	C.3	1	UNK0	0.005	
21	   O	135.769	130.962	146.930	O.2	1	UNK0	-0.302	
22	   O	136.524	129.002	147.645	O.co2	1	UNK0	-0.239	
23	   O	138.673	135.879	144.594	O.2	1	UNK0	-0.385	
24	   H	135.527	130.040	143.274	 H	1	UNK0	0.174	
25	   H	136.967	130.576	142.593	 H	1	UNK0	0.174	
26	   H	134.130	137.297	143.391	 H	1	UNK0	0.174	
27	   H	135.417	137.288	142.311	 H	1	UNK0	0.174	
28	   H	134.155	131.705	144.503	 H	1	UNK0	0.178	
29	   H	133.906	135.288	144.984	 H	1	UNK0	0.178	
30	   H	137.062	135.348	142.423	 H	1	UNK0	0.180	
31	   H	138.080	131.024	145.907	 H	1	UNK0	0.161	
32	   H	138.607	129.532	146.471	 H	1	UNK0	0.161	
33	   H	138.138	136.174	143.845	 H	1	UNK0	0.210	
@<TRIPOS>BOND
1 1 8 1
2 1 24 1
3 1 25 1
4 2 9 1
5 2 28 1
6 3 11 1
7 3 29 1
8 4 26 1
9 4 27 1
10 5 30 1
11 6 13 1
12 7 31 1
13 7 32 1
14 2 8 1
15 6 8 1
16 9 10 1
17 9 16 1
18 3 10 1
19 10 12 1
20 4 11 1
21 5 11 1
22 5 12 1
23 6 12 1
24 12 15 1
25 13 14 1
26 14 15 1
27 15 18 1
28 15 23 2
29 16 21 2
30 7 17 1
31 17 22 2
32 18 19 1
33 19 20 1
34 17 21 2
35 23 33 1
@<TRIPOS>SUBSTRUCTURE
1	UNK0	1	GROUP	1 ****	UNK
