MODEL 1
REMARK VINA RESULT:      -6.6      0.000      0.000
REMARK  6 active torsions:
REMARK  status: ('A' for Active; 'I' for Inactive)
REMARK    1  A    between atoms: C_6  and  C_7 
REMARK    2  A    between atoms: C_7  and  O_8 
REMARK    3  A    between atoms: O_8  and  C_9 
REMARK       I    between atoms: C_9  and  N_10 
REMARK    4  A    between atoms: C_23  and  C_24 
REMARK    5  A    between atoms: C_23  and  O_27 
REMARK    6  A    between atoms: C_24  and  C_25 
ROOT
ATOM      1  N           0     136.205 130.726 143.174  0.00  0.00    -0.235 N 
ATOM      2  H           0     135.527 130.040 143.274  0.00  0.00     0.174 HD
ATOM      3  H           0     136.967 130.576 142.593  0.00  0.00     0.174 HD
ATOM      4  C           0     136.090 131.855 143.819  0.00  0.00     0.672 C 
ATOM      5  N           0     135.019 132.118 144.655  0.00  0.00    -0.218 N 
ATOM      6  C           0     135.224 133.035 145.773  0.00  0.00     0.151 C 
ATOM      7  C           0     135.856 134.345 145.347  0.00  0.00     0.178 C 
ATOM      8  N           0     134.829 135.193 144.703  0.00  0.00    -0.216 N 
ATOM      9  C           0     135.420 135.821 143.634  0.00  0.00     0.670 C 
ATOM     10  N           0     134.949 136.894 143.063  0.00  0.00    -0.235 N 
ATOM     11  H           0     134.130 137.297 143.391  0.00  0.00     0.174 HD
ATOM     12  H           0     135.417 137.288 142.311  0.00  0.00     0.174 HD
ATOM     13  C           0     136.929 134.200 144.280  0.00  0.00     0.192 C 
ATOM     14  N           0     136.570 135.181 143.243  0.00  0.00    -0.194 N 
ATOM     15  N           0     137.023 132.852 143.716  0.00  0.00    -0.185 N 
ATOM     16  C           0     138.349 132.789 143.075  0.00  0.00     0.147 C 
ATOM     17  C           0     139.276 133.574 144.033  0.00  0.00     0.063 C 
ATOM     18  C           0     138.332 134.510 144.829  0.00  0.00     0.106 C 
ATOM     19  H           0     134.155 131.705 144.503  0.00  0.00     0.178 HD
ATOM     20  H           0     133.906 135.288 144.984  0.00  0.00     0.178 HD
ATOM     21  H           0     137.062 135.348 142.423  0.00  0.00     0.180 HD
ENDROOT
BRANCH   6  22
ATOM     22  C           0     136.134 132.362 146.802  0.00  0.00     0.208 C 
BRANCH  22  23
ATOM     23  O           0     135.769 130.962 146.930  0.00  0.00    -0.302 OA
BRANCH  23  24
ATOM     24  C           0     136.728 130.021 147.017  0.00  0.00     0.358 C 
ATOM     25  N           0     137.916 130.210 146.408  0.00  0.00    -0.346 N 
ATOM     26  H           0     138.080 131.024 145.907  0.00  0.00     0.161 HD
ATOM     27  H           0     138.607 129.532 146.471  0.00  0.00     0.161 HD
ATOM     28  O           0     136.524 129.002 147.645  0.00  0.00    -0.239 OA
ENDBRANCH  23  24
ENDBRANCH  22  23
ENDBRANCH   6  22
BRANCH  18  29
ATOM     29  C           0     138.401 134.192 146.324  0.00  0.00     0.042 C 
BRANCH  29  30
ATOM     30  C           0     139.632 133.329 146.605  0.00  0.00    -0.001 C 
ATOM     31  C           0     140.004 133.438 148.086  0.00  0.00     0.005 C 
ENDBRANCH  29  30
ENDBRANCH  18  29
BRANCH  18  32
ATOM     32  O           0     138.673 135.879 144.594  0.00  0.00    -0.385 OA
ATOM     33  H           0     138.138 136.174 143.845  0.00  0.00     0.210 HD
ENDBRANCH  18  32
TORSDOF 6
ENDMDL
MODEL 2
REMARK VINA RESULT:      -6.6      2.603      4.155
REMARK  6 active torsions:
REMARK  status: ('A' for Active; 'I' for Inactive)
REMARK    1  A    between atoms: C_6  and  C_7 
REMARK    2  A    between atoms: C_7  and  O_8 
REMARK    3  A    between atoms: O_8  and  C_9 
REMARK       I    between atoms: C_9  and  N_10 
REMARK    4  A    between atoms: C_23  and  C_24 
REMARK    5  A    between atoms: C_23  and  O_27 
REMARK    6  A    between atoms: C_24  and  C_25 
ROOT
ATOM      1  N           0     137.922 134.778 142.869  0.00  0.00    -0.235 N 
ATOM      2  H           0     137.317 135.244 142.272  0.00  0.00     0.174 HD
ATOM      3  H           0     138.812 134.537 142.568  0.00  0.00     0.174 HD
ATOM      4  C           0     137.540 134.477 144.079  0.00  0.00     0.672 C 
ATOM      5  N           0     136.282 134.803 144.557  0.00  0.00    -0.218 N 
ATOM      6  C           0     135.694 133.957 145.591  0.00  0.00     0.151 C 
ATOM      7  C           0     136.629 133.732 146.763  0.00  0.00     0.178 C 
ATOM      8  N           0     136.641 134.943 147.614  0.00  0.00    -0.216 N 
ATOM      9  C           0     137.934 135.142 148.031  0.00  0.00     0.670 C 
ATOM     10  N           0     138.267 135.873 149.058  0.00  0.00    -0.235 N 
ATOM     11  H           0     137.581 136.316 149.580  0.00  0.00     0.174 HD
ATOM     12  H           0     139.201 135.973 149.299  0.00  0.00     0.174 HD
ATOM     13  C           0     138.086 133.547 146.372  0.00  0.00     0.192 C 
ATOM     14  N           0     138.833 134.477 147.234  0.00  0.00    -0.194 N 
ATOM     15  N           0     138.355 133.813 144.957  0.00  0.00    -0.185 N 
ATOM     16  C           0     139.650 133.167 144.679  0.00  0.00     0.147 C 
ATOM     17  C           0     139.605 131.851 145.491  0.00  0.00     0.063 C 
ATOM     18  C           0     138.569 132.107 146.614  0.00  0.00     0.106 C 
ATOM     19  H           0     135.804 135.574 144.214  0.00  0.00     0.178 HD
ATOM     20  H           0     135.875 135.495 147.836  0.00  0.00     0.178 HD
ATOM     21  H           0     139.795 134.598 147.241  0.00  0.00     0.180 HD
ENDROOT
BRANCH   6  22
ATOM     22  C           0     135.341 132.601 144.977  0.00  0.00     0.208 C 
BRANCH  22  23
ATOM     23  O           0     134.257 132.768 144.025  0.00  0.00    -0.302 OA
BRANCH  23  24
ATOM     24  C           0     134.432 132.419 142.737  0.00  0.00     0.358 C 
ATOM     25  N           0     133.522 131.640 142.119  0.00  0.00    -0.346 N 
ATOM     26  H           0     132.740 131.332 142.603  0.00  0.00     0.161 HD
ATOM     27  H           0     133.648 131.389 141.190  0.00  0.00     0.161 HD
ATOM     28  O           0     135.412 132.806 142.130  0.00  0.00    -0.239 OA
ENDBRANCH  23  24
ENDBRANCH  22  23
ENDBRANCH   6  22
BRANCH  18  29
ATOM     29  C           0     137.400 131.127 146.495  0.00  0.00     0.042 C 
BRANCH  29  30
ATOM     30  C           0     137.600 129.973 147.478  0.00  0.00    -0.001 C 
ATOM     31  C           0     136.434 128.990 147.356  0.00  0.00     0.005 C 
ENDBRANCH  29  30
ENDBRANCH  18  29
BRANCH  18  32
ATOM     32  O           0     139.186 131.993 147.899  0.00  0.00    -0.385 OA
ATOM     33  H           0     140.092 131.691 147.747  0.00  0.00     0.210 HD
ENDBRANCH  18  32
TORSDOF 6
ENDMDL
MODEL 3
REMARK VINA RESULT:      -6.5      2.719      5.163
REMARK  6 active torsions:
REMARK  status: ('A' for Active; 'I' for Inactive)
REMARK    1  A    between atoms: C_6  and  C_7 
REMARK    2  A    between atoms: C_7  and  O_8 
REMARK    3  A    between atoms: O_8  and  C_9 
REMARK       I    between atoms: C_9  and  N_10 
REMARK    4  A    between atoms: C_23  and  C_24 
REMARK    5  A    between atoms: C_23  and  O_27 
REMARK    6  A    between atoms: C_24  and  C_25 
ROOT
ATOM      1  N           0     139.627 131.472 145.657  0.00  0.00    -0.235 N 
ATOM      2  H           0     140.450 131.628 146.147  0.00  0.00     0.174 HD
ATOM      3  H           0     139.604 130.817 144.943  0.00  0.00     0.174 HD
ATOM      4  C           0     138.550 132.140 145.965  0.00  0.00     0.672 C 
ATOM      5  N           0     138.531 133.081 146.980  0.00  0.00    -0.218 N 
ATOM      6  C           0     137.582 134.186 146.881  0.00  0.00     0.151 C 
ATOM      7  C           0     136.165 133.718 146.611  0.00  0.00     0.178 C 
ATOM      8  N           0     135.582 133.189 147.864  0.00  0.00    -0.216 N 
ATOM      9  C           0     134.844 132.076 147.540  0.00  0.00     0.670 C 
ATOM     10  N           0     133.914 131.569 148.299  0.00  0.00    -0.235 N 
ATOM     11  H           0     133.706 131.980 149.152  0.00  0.00     0.174 HD
ATOM     12  H           0     133.430 130.780 148.010  0.00  0.00     0.174 HD
ATOM     13  C           0     136.070 132.549 145.644  0.00  0.00     0.192 C 
ATOM     14  N           0     135.208 131.565 146.319  0.00  0.00    -0.194 N 
ATOM     15  N           0     137.366 131.961 145.300  0.00  0.00    -0.185 N 
ATOM     16  C           0     137.129 131.192 144.064  0.00  0.00     0.147 C 
ATOM     17  C           0     136.143 132.065 143.252  0.00  0.00     0.063 C 
ATOM     18  C           0     135.441 132.962 144.303  0.00  0.00     0.106 C 
ATOM     19  H           0     139.133 133.008 147.737  0.00  0.00     0.178 HD
ATOM     20  H           0     135.699 133.561 148.752  0.00  0.00     0.178 HD
ATOM     21  H           0     134.940 130.704 145.961  0.00  0.00     0.180 HD
ENDROOT
BRANCH   6  22
ATOM     22  C           0     138.018 135.111 145.744  0.00  0.00     0.208 C 
BRANCH  22  23
ATOM     23  O           0     139.376 135.567 145.985  0.00  0.00    -0.302 OA
BRANCH  23  24
ATOM     24  C           0     139.598 136.821 146.421  0.00  0.00     0.358 C 
ATOM     25  N           0     138.963 137.276 147.520  0.00  0.00    -0.346 N 
ATOM     26  H           0     138.347 136.698 147.997  0.00  0.00     0.161 HD
ATOM     27  H           0     139.123 138.180 147.834  0.00  0.00     0.161 HD
ATOM     28  O           0     140.370 137.545 145.823  0.00  0.00    -0.239 OA
ENDBRANCH  23  24
ENDBRANCH  22  23
ENDBRANCH   6  22
BRANCH  18  29
ATOM     29  C           0     135.721 134.439 144.016  0.00  0.00     0.042 C 
BRANCH  29  30
ATOM     30  C           0     134.618 135.002 143.119  0.00  0.00    -0.001 C 
ATOM     31  C           0     134.660 136.532 143.159  0.00  0.00     0.005 C 
ENDBRANCH  29  30
ENDBRANCH  18  29
BRANCH  18  32
ATOM     32  O           0     134.033 132.714 144.310  0.00  0.00    -0.385 OA
ATOM     33  H           0     133.811 132.396 145.195  0.00  0.00     0.210 HD
ENDBRANCH  18  32
TORSDOF 6
ENDMDL
MODEL 4
REMARK VINA RESULT:      -6.4     10.759     12.192
REMARK  6 active torsions:
REMARK  status: ('A' for Active; 'I' for Inactive)
REMARK    1  A    between atoms: C_6  and  C_7 
REMARK    2  A    between atoms: C_7  and  O_8 
REMARK    3  A    between atoms: O_8  and  C_9 
REMARK       I    between atoms: C_9  and  N_10 
REMARK    4  A    between atoms: C_23  and  C_24 
REMARK    5  A    between atoms: C_23  and  O_27 
REMARK    6  A    between atoms: C_24  and  C_25 
ROOT
ATOM      1  N           0     131.571 131.394 132.408  0.00  0.00    -0.235 N 
ATOM      2  H           0     130.943 130.683 132.608  0.00  0.00     0.174 HD
ATOM      3  H           0     132.348 131.215 131.855  0.00  0.00     0.174 HD
ATOM      4  C           0     131.369 132.593 132.880  0.00  0.00     0.672 C 
ATOM      5  N           0     130.274 132.899 133.669  0.00  0.00    -0.218 N 
ATOM      6  C           0     130.402 133.982 134.639  0.00  0.00     0.151 C 
ATOM      7  C           0     130.944 135.258 134.025  0.00  0.00     0.178 C 
ATOM      8  N           0     129.866 135.926 133.264  0.00  0.00    -0.216 N 
ATOM      9  C           0     130.422 136.432 132.114  0.00  0.00     0.670 C 
ATOM     10  N           0     129.882 137.372 131.391  0.00  0.00    -0.235 N 
ATOM     11  H           0     129.033 137.760 131.656  0.00  0.00     0.174 HD
ATOM     12  H           0     130.329 137.684 130.589  0.00  0.00     0.174 HD
ATOM     13  C           0     132.035 135.035 132.991  0.00  0.00     0.192 C 
ATOM     14  N           0     131.618 135.825 131.821  0.00  0.00    -0.194 N 
ATOM     15  N           0     132.230 133.629 132.632  0.00  0.00    -0.185 N 
ATOM     16  C           0     133.564 133.568 132.007  0.00  0.00     0.147 C 
ATOM     17  C           0     134.424 134.549 132.838  0.00  0.00     0.063 C 
ATOM     18  C           0     133.407 135.522 133.488  0.00  0.00     0.106 C 
ATOM     19  H           0     129.443 132.407 133.578  0.00  0.00     0.178 HD
ATOM     20  H           0     128.935 135.995 133.528  0.00  0.00     0.178 HD
ATOM     21  H           0     132.106 135.905 130.986  0.00  0.00     0.180 HD
ENDROOT
BRANCH   6  22
ATOM     22  C           0     131.347 133.534 135.756  0.00  0.00     0.208 C 
BRANCH  22  23
ATOM     23  O           0     130.971 132.205 136.204  0.00  0.00    -0.302 OA
BRANCH  23  24
ATOM     24  C           0     130.408 132.037 137.415  0.00  0.00     0.358 C 
ATOM     25  N           0     130.874 132.725 138.477  0.00  0.00    -0.346 N 
ATOM     26  H           0     131.615 133.341 138.369  0.00  0.00     0.161 HD
ATOM     27  H           0     130.468 132.604 139.350  0.00  0.00     0.161 HD
ATOM     28  O           0     129.479 131.265 137.552  0.00  0.00    -0.239 OA
ENDBRANCH  23  24
ENDBRANCH  22  23
ENDBRANCH   6  22
BRANCH  18  29
ATOM     29  C           0     133.483 135.433 135.014  0.00  0.00     0.042 C 
BRANCH  29  30
ATOM     30  C           0     134.919 135.122 135.436  0.00  0.00    -0.001 C 
ATOM     31  C           0     135.101 135.463 136.916  0.00  0.00     0.005 C 
ENDBRANCH  29  30
ENDBRANCH  18  29
BRANCH  18  32
ATOM     32  O           0     133.652 136.862 133.055  0.00  0.00    -0.385 OA
ATOM     33  H           0     132.855 137.371 133.258  0.00  0.00     0.210 HD
ENDBRANCH  18  32
TORSDOF 6
ENDMDL
MODEL 5
REMARK VINA RESULT:      -6.4     11.717     13.244
REMARK  6 active torsions:
REMARK  status: ('A' for Active; 'I' for Inactive)
REMARK    1  A    between atoms: C_6  and  C_7 
REMARK    2  A    between atoms: C_7  and  O_8 
REMARK    3  A    between atoms: O_8  and  C_9 
REMARK       I    between atoms: C_9  and  N_10 
REMARK    4  A    between atoms: C_23  and  C_24 
REMARK    5  A    between atoms: C_23  and  O_27 
REMARK    6  A    between atoms: C_24  and  C_25 
ROOT
ATOM      1  N           0     128.979 133.331 131.385  0.00  0.00    -0.235 N 
ATOM      2  H           0     128.165 132.957 131.011  0.00  0.00     0.174 HD
ATOM      3  H           0     129.307 134.189 131.074  0.00  0.00     0.174 HD
ATOM      4  C           0     129.629 132.680 132.309  0.00  0.00     0.672 C 
ATOM      5  N           0     129.199 131.455 132.789  0.00  0.00    -0.218 N 
ATOM      6  C           0     130.199 130.523 133.301  0.00  0.00     0.151 C 
ATOM      7  C           0     131.124 131.159 134.320  0.00  0.00     0.178 C 
ATOM      8  N           0     130.416 131.273 135.614  0.00  0.00    -0.216 N 
ATOM      9  C           0     130.760 132.482 136.169  0.00  0.00     0.670 C 
ATOM     10  N           0     130.629 132.770 137.433  0.00  0.00    -0.235 N 
ATOM     11  H           0     130.269 132.110 138.046  0.00  0.00     0.174 HD
ATOM     12  H           0     130.892 133.644 137.761  0.00  0.00     0.174 HD
ATOM     13  C           0     131.519 132.590 133.994  0.00  0.00     0.192 C 
ATOM     14  N           0     131.260 133.348 135.228  0.00  0.00    -0.194 N 
ATOM     15  N           0     130.785 133.162 132.863  0.00  0.00    -0.185 N 
ATOM     16  C           0     131.587 134.319 132.424  0.00  0.00     0.147 C 
ATOM     17  C           0     133.053 133.849 132.571  0.00  0.00     0.063 C 
ATOM     18  C           0     133.006 132.704 133.614  0.00  0.00     0.106 C 
ATOM     19  H           0     128.258 131.222 132.785  0.00  0.00     0.178 HD
ATOM     20  H           0     129.817 130.616 135.999  0.00  0.00     0.178 HD
ATOM     21  H           0     131.416 134.297 135.357  0.00  0.00     0.180 HD
ENDROOT
BRANCH   6  22
ATOM     22  C           0     131.038 130.008 132.130  0.00  0.00     0.208 C 
BRANCH  22  23
ATOM     23  O           0     130.826 128.580 131.974  0.00  0.00    -0.302 OA
BRANCH  23  24
ATOM     24  C           0     131.419 127.715 132.818  0.00  0.00     0.358 C 
ATOM     25  N           0     130.768 126.602 133.211  0.00  0.00    -0.346 N 
ATOM     26  H           0     129.872 126.424 132.884  0.00  0.00     0.161 HD
ATOM     27  H           0     131.195 125.978 133.819  0.00  0.00     0.161 HD
ATOM     28  O           0     132.541 127.937 133.227  0.00  0.00    -0.239 OA
ENDBRANCH  23  24
ENDBRANCH  22  23
ENDBRANCH   6  22
BRANCH  18  29
ATOM     29  C           0     133.498 131.395 132.992  0.00  0.00     0.042 C 
BRANCH  29  30
ATOM     30  C           0     134.816 130.982 133.649  0.00  0.00    -0.001 C 
ATOM     31  C           0     135.970 131.228 132.674  0.00  0.00     0.005 C 
ENDBRANCH  29  30
ENDBRANCH  18  29
BRANCH  18  32
ATOM     32  O           0     133.793 133.039 134.758  0.00  0.00    -0.385 OA
ATOM     33  H           0     134.121 133.937 134.618  0.00  0.00     0.210 HD
ENDBRANCH  18  32
TORSDOF 6
ENDMDL
MODEL 6
REMARK VINA RESULT:      -6.4      2.350      4.878
REMARK  6 active torsions:
REMARK  status: ('A' for Active; 'I' for Inactive)
REMARK    1  A    between atoms: C_6  and  C_7 
REMARK    2  A    between atoms: C_7  and  O_8 
REMARK    3  A    between atoms: O_8  and  C_9 
REMARK       I    between atoms: C_9  and  N_10 
REMARK    4  A    between atoms: C_23  and  C_24 
REMARK    5  A    between atoms: C_23  and  O_27 
REMARK    6  A    between atoms: C_24  and  C_25 
ROOT
ATOM      1  N           0     135.913 134.884 147.779  0.00  0.00    -0.235 N 
ATOM      2  H           0     136.265 135.784 147.690  0.00  0.00     0.174 HD
ATOM      3  H           0     135.311 134.667 148.507  0.00  0.00     0.174 HD
ATOM      4  C           0     136.248 133.966 146.915  0.00  0.00     0.672 C 
ATOM      5  N           0     137.101 134.227 145.856  0.00  0.00    -0.218 N 
ATOM      6  C           0     137.908 133.131 145.332  0.00  0.00     0.151 C 
ATOM      7  C           0     137.085 131.897 145.015  0.00  0.00     0.178 C 
ATOM      8  N           0     136.361 132.111 143.743  0.00  0.00    -0.216 N 
ATOM      9  C           0     135.105 131.571 143.886  0.00  0.00     0.670 C 
ATOM     10  N           0     134.329 131.250 142.889  0.00  0.00    -0.235 N 
ATOM     11  H           0     134.629 131.389 141.977  0.00  0.00     0.174 HD
ATOM     12  H           0     133.452 130.873 143.060  0.00  0.00     0.174 HD
ATOM     13  C           0     135.981 131.611 146.019  0.00  0.00     0.192 C 
ATOM     14  N           0     134.770 131.412 145.207  0.00  0.00    -0.194 N 
ATOM     15  N           0     135.784 132.680 147.000  0.00  0.00    -0.185 N 
ATOM     16  C           0     135.038 132.059 148.110  0.00  0.00     0.147 C 
ATOM     17  C           0     135.647 130.642 148.235  0.00  0.00     0.063 C 
ATOM     18  C           0     136.269 130.347 146.847  0.00  0.00     0.106 C 
ATOM     19  H           0     137.159 135.116 145.472  0.00  0.00     0.178 HD
ATOM     20  H           0     136.708 132.551 142.952  0.00  0.00     0.178 HD
ATOM     21  H           0     133.886 131.202 145.547  0.00  0.00     0.180 HD
ENDROOT
BRANCH   6  22
ATOM     22  C           0     138.970 132.760 146.369  0.00  0.00     0.208 C 
BRANCH  22  23
ATOM     23  O           0     139.879 133.877 146.553  0.00  0.00    -0.302 OA
BRANCH  23  24
ATOM     24  C           0     139.966 134.485 147.751  0.00  0.00     0.358 C 
ATOM     25  N           0     141.118 135.075 148.126  0.00  0.00    -0.346 N 
ATOM     26  H           0     141.885 135.063 147.532  0.00  0.00     0.161 HD
ATOM     27  H           0     141.180 135.513 148.990  0.00  0.00     0.161 HD
ATOM     28  O           0     139.005 134.501 148.495  0.00  0.00    -0.239 OA
ENDBRANCH  23  24
ENDBRANCH  22  23
ENDBRANCH   6  22
BRANCH  18  29
ATOM     29  C           0     137.778 130.127 146.975  0.00  0.00     0.042 C 
BRANCH  29  30
ATOM     30  C           0     138.120 129.766 148.421  0.00  0.00    -0.001 C 
ATOM     31  C           0     138.509 128.288 148.499  0.00  0.00     0.005 C 
ENDBRANCH  29  30
ENDBRANCH  18  29
BRANCH  18  32
ATOM     32  O           0     135.647 129.205 146.254  0.00  0.00    -0.385 OA
ATOM     33  H           0     135.146 129.525 145.492  0.00  0.00     0.210 HD
ENDBRANCH  18  32
TORSDOF 6
ENDMDL
MODEL 7
REMARK VINA RESULT:      -6.3     11.488     13.838
REMARK  6 active torsions:
REMARK  status: ('A' for Active; 'I' for Inactive)
REMARK    1  A    between atoms: C_6  and  C_7 
REMARK    2  A    between atoms: C_7  and  O_8 
REMARK    3  A    between atoms: O_8  and  C_9 
REMARK       I    between atoms: C_9  and  N_10 
REMARK    4  A    between atoms: C_23  and  C_24 
REMARK    5  A    between atoms: C_23  and  O_27 
REMARK    6  A    between atoms: C_24  and  C_25 
ROOT
ATOM      1  N           0     134.766 132.939 133.563  0.00  0.00    -0.235 N 
ATOM      2  H           0     135.408 133.642 133.746  0.00  0.00     0.174 HD
ATOM      3  H           0     135.044 132.136 133.096  0.00  0.00     0.174 HD
ATOM      4  C           0     133.528 133.072 133.950  0.00  0.00     0.672 C 
ATOM      5  N           0     133.083 134.196 134.625  0.00  0.00    -0.218 N 
ATOM      6  C           0     131.682 134.579 134.482  0.00  0.00     0.151 C 
ATOM      7  C           0     130.731 133.430 134.750  0.00  0.00     0.178 C 
ATOM      8  N           0     130.630 133.213 136.210  0.00  0.00    -0.216 N 
ATOM      9  C           0     130.592 131.857 136.425  0.00  0.00     0.670 C 
ATOM     10  N           0     130.151 131.302 137.519  0.00  0.00    -0.235 N 
ATOM     11  H           0     129.823 131.855 138.245  0.00  0.00     0.174 HD
ATOM     12  H           0     130.152 130.336 137.607  0.00  0.00     0.174 HD
ATOM     13  C           0     131.207 132.090 134.214  0.00  0.00     0.192 C 
ATOM     14  N           0     131.075 131.158 135.346  0.00  0.00    -0.194 N 
ATOM     15  N           0     132.582 132.110 133.711  0.00  0.00    -0.185 N 
ATOM     16  C           0     132.701 130.916 132.854  0.00  0.00     0.147 C 
ATOM     17  C           0     131.337 130.826 132.129  0.00  0.00     0.063 C 
ATOM     18  C           0     130.348 131.603 133.034  0.00  0.00     0.106 C 
ATOM     19  H           0     133.687 134.714 135.179  0.00  0.00     0.178 HD
ATOM     20  H           0     130.598 133.902 136.891  0.00  0.00     0.178 HD
ATOM     21  H           0     131.289 130.212 135.332  0.00  0.00     0.180 HD
ENDROOT
BRANCH   6  22
ATOM     22  C           0     131.453 135.085 133.056  0.00  0.00     0.208 C 
BRANCH  22  23
ATOM     23  O           0     130.745 136.352 133.100  0.00  0.00    -0.302 OA
BRANCH  23  24
ATOM     24  C           0     131.430 137.501 133.256  0.00  0.00     0.358 C 
ATOM     25  N           0     130.801 138.605 133.705  0.00  0.00    -0.346 N 
ATOM     26  H           0     129.855 138.572 133.917  0.00  0.00     0.161 HD
ATOM     27  H           0     131.294 139.433 133.817  0.00  0.00     0.161 HD
ATOM     28  O           0     132.615 137.542 132.991  0.00  0.00    -0.239 OA
ENDBRANCH  23  24
ENDBRANCH  22  23
ENDBRANCH   6  22
BRANCH  18  29
ATOM     29  C           0     129.758 132.796 132.279  0.00  0.00     0.042 C 
BRANCH  29  30
ATOM     30  C           0     128.434 132.385 131.633  0.00  0.00    -0.001 C 
ATOM     31  C           0     127.413 133.513 131.800  0.00  0.00     0.005 C 
ENDBRANCH  29  30
ENDBRANCH  18  29
BRANCH  18  32
ATOM     32  O           0     129.307 130.739 133.493  0.00  0.00    -0.385 OA
ATOM     33  H           0     128.568 130.842 132.878  0.00  0.00     0.210 HD
ENDBRANCH  18  32
TORSDOF 6
ENDMDL
MODEL 8
REMARK VINA RESULT:      -6.2     11.312     13.288
REMARK  6 active torsions:
REMARK  status: ('A' for Active; 'I' for Inactive)
REMARK    1  A    between atoms: C_6  and  C_7 
REMARK    2  A    between atoms: C_7  and  O_8 
REMARK    3  A    between atoms: O_8  and  C_9 
REMARK       I    between atoms: C_9  and  N_10 
REMARK    4  A    between atoms: C_23  and  C_24 
REMARK    5  A    between atoms: C_23  and  O_27 
REMARK    6  A    between atoms: C_24  and  C_25 
ROOT
ATOM      1  N           0     131.468 137.626 132.079  0.00  0.00    -0.235 N 
ATOM      2  H           0     130.626 138.045 131.843  0.00  0.00     0.174 HD
ATOM      3  H           0     132.298 137.961 131.707  0.00  0.00     0.174 HD
ATOM      4  C           0     131.483 136.613 132.901  0.00  0.00     0.672 C 
ATOM      5  N           0     130.325 136.102 133.462  0.00  0.00    -0.218 N 
ATOM      6  C           0     130.299 134.689 133.826  0.00  0.00     0.151 C 
ATOM      7  C           0     131.485 134.283 134.678  0.00  0.00     0.178 C 
ATOM      8  N           0     131.271 134.753 136.065  0.00  0.00    -0.216 N 
ATOM      9  C           0     132.478 135.205 136.540  0.00  0.00     0.670 C 
ATOM     10  N           0     132.759 135.351 137.804  0.00  0.00    -0.235 N 
ATOM     11  H           0     132.094 135.135 138.476  0.00  0.00     0.174 HD
ATOM     12  H           0     133.632 135.676 138.072  0.00  0.00     0.174 HD
ATOM     13  C           0     132.797 134.935 134.271  0.00  0.00     0.192 C 
ATOM     14  N           0     133.353 135.483 135.519  0.00  0.00    -0.194 N 
ATOM     15  N           0     132.645 135.983 133.260  0.00  0.00    -0.185 N 
ATOM     16  C           0     133.989 136.165 132.682  0.00  0.00     0.147 C 
ATOM     17  C           0     134.571 134.733 132.606  0.00  0.00     0.063 C 
ATOM     18  C           0     133.780 133.921 133.662  0.00  0.00     0.106 C 
ATOM     19  H           0     129.552 136.669 133.609  0.00  0.00     0.178 HD
ATOM     20  H           0     130.432 134.744 136.550  0.00  0.00     0.178 HD
ATOM     21  H           0     134.194 135.958 135.606  0.00  0.00     0.180 HD
ENDROOT
BRANCH   6  22
ATOM     22  C           0     130.302 133.850 132.548  0.00  0.00     0.208 C 
BRANCH  22  23
ATOM     23  O           0     129.035 134.013 131.858  0.00  0.00    -0.302 OA
BRANCH  23  24
ATOM     24  C           0     128.070 133.084 131.994  0.00  0.00     0.358 C 
ATOM     25  N           0     128.399 131.797 132.223  0.00  0.00    -0.346 N 
ATOM     26  H           0     129.332 131.541 132.290  0.00  0.00     0.161 HD
ATOM     27  H           0     127.704 131.128 132.320  0.00  0.00     0.161 HD
ATOM     28  O           0     126.901 133.405 131.909  0.00  0.00    -0.239 OA
ENDBRANCH  23  24
ENDBRANCH  22  23
ENDBRANCH   6  22
BRANCH  18  29
ATOM     29  C           0     133.016 132.776 132.993  0.00  0.00     0.042 C 
BRANCH  29  30
ATOM     30  C           0     133.594 131.438 133.455  0.00  0.00    -0.001 C 
ATOM     31  C           0     132.460 130.534 133.943  0.00  0.00     0.005 C 
ENDBRANCH  29  30
ENDBRANCH  18  29
BRANCH  18  32
ATOM     32  O           0     134.662 133.412 134.664  0.00  0.00    -0.385 OA
ATOM     33  H           0     134.546 132.452 134.677  0.00  0.00     0.210 HD
ENDBRANCH  18  32
TORSDOF 6
ENDMDL
MODEL 9
REMARK VINA RESULT:      -6.2     10.954     12.877
REMARK  6 active torsions:
REMARK  status: ('A' for Active; 'I' for Inactive)
REMARK    1  A    between atoms: C_6  and  C_7 
REMARK    2  A    between atoms: C_7  and  O_8 
REMARK    3  A    between atoms: O_8  and  C_9 
REMARK       I    between atoms: C_9  and  N_10 
REMARK    4  A    between atoms: C_23  and  C_24 
REMARK    5  A    between atoms: C_23  and  O_27 
REMARK    6  A    between atoms: C_24  and  C_25 
ROOT
ATOM      1  N           0     131.180 133.272 137.001  0.00  0.00    -0.235 N 
ATOM      2  H           0     131.112 133.903 137.734  0.00  0.00     0.174 HD
ATOM      3  H           0     131.303 132.327 137.183  0.00  0.00     0.174 HD
ATOM      4  C           0     131.102 133.693 135.769  0.00  0.00     0.672 C 
ATOM      5  N           0     130.921 135.030 135.458  0.00  0.00    -0.218 N 
ATOM      6  C           0     131.446 135.521 134.188  0.00  0.00     0.151 C 
ATOM      7  C           0     131.013 134.673 133.008  0.00  0.00     0.178 C 
ATOM      8  N           0     129.608 134.993 132.671  0.00  0.00    -0.216 N 
ATOM      9  C           0     128.981 133.814 132.347  0.00  0.00     0.670 C 
ATOM     10  N           0     127.874 133.737 131.665  0.00  0.00    -0.235 N 
ATOM     11  H           0     127.441 134.546 131.351  0.00  0.00     0.174 HD
ATOM     12  H           0     127.483 132.871 131.471  0.00  0.00     0.174 HD
ATOM     13  C           0     130.989 133.180 133.291  0.00  0.00     0.192 C 
ATOM     14  N           0     129.666 132.726 132.831  0.00  0.00    -0.194 N 
ATOM     15  N           0     131.198 132.842 134.700  0.00  0.00    -0.185 N 
ATOM     16  C           0     131.588 131.420 134.706  0.00  0.00     0.147 C 
ATOM     17  C           0     132.494 131.264 133.462  0.00  0.00     0.063 C 
ATOM     18  C           0     132.092 132.431 132.524  0.00  0.00     0.106 C 
ATOM     19  H           0     130.457 135.624 136.068  0.00  0.00     0.178 HD
ATOM     20  H           0     129.203 135.874 132.677  0.00  0.00     0.178 HD
ATOM     21  H           0     129.335 131.815 132.863  0.00  0.00     0.180 HD
ENDROOT
BRANCH   6  22
ATOM     22  C           0     132.975 135.525 134.254  0.00  0.00     0.208 C 
BRANCH  22  23
ATOM     23  O           0     133.401 135.952 135.575  0.00  0.00    -0.302 OA
BRANCH  23  24
ATOM     24  C           0     134.330 135.244 136.244  0.00  0.00     0.358 C 
ATOM     25  N           0     134.783 135.681 137.436  0.00  0.00    -0.346 N 
ATOM     26  H           0     134.438 136.507 137.812  0.00  0.00     0.161 HD
ATOM     27  H           0     135.452 135.171 137.919  0.00  0.00     0.161 HD
ATOM     28  O           0     134.761 134.209 135.774  0.00  0.00    -0.239 OA
ENDBRANCH  23  24
ENDBRANCH  22  23
ENDBRANCH   6  22
BRANCH  18  29
ATOM     29  C           0     133.289 133.353 132.279  0.00  0.00     0.042 C 
BRANCH  29  30
ATOM     30  C           0     134.582 132.615 132.627  0.00  0.00    -0.001 C 
ATOM     31  C           0     135.474 132.536 131.386  0.00  0.00     0.005 C 
ENDBRANCH  29  30
ENDBRANCH  18  29
BRANCH  18  32
ATOM     32  O           0     131.590 131.926 131.285  0.00  0.00    -0.385 OA
ATOM     33  H           0     130.627 131.897 131.366  0.00  0.00     0.210 HD
ENDBRANCH  18  32
TORSDOF 6
ENDMDL
