MODEL 1
REMARK VINA RESULT:      -7.7      0.000      0.000
REMARK  5 active torsions:
REMARK  status: ('A' for Active; 'I' for Inactive)
REMARK    1  A    between atoms: C_6  and  C_7 
REMARK    2  A    between atoms: C_7  and  O_8 
REMARK    3  A    between atoms: O_8  and  C_9 
REMARK       I    between atoms: C_9  and  N_10 
REMARK    4  A    between atoms: C_23  and  O_24 
REMARK    5  A    between atoms: C_23  and  O_25 
ROOT
ATOM      1  N           0     134.935 132.047 146.706  0.00  0.00    -0.235 N 
ATOM      2  H           0     135.197 132.143 147.634  0.00  0.00     0.174 HD
ATOM      3  H           0     134.267 131.389 146.456  0.00  0.00     0.174 HD
ATOM      4  C           0     135.476 132.805 145.793  0.00  0.00     0.672 C 
ATOM      5  N           0     136.429 133.761 146.099  0.00  0.00    -0.218 N 
ATOM      6  C           0     137.411 134.111 145.077  0.00  0.00     0.151 C 
ATOM      7  C           0     136.771 134.456 143.747  0.00  0.00     0.180 C 
ATOM      8  N           0     136.205 135.819 143.819  0.00  0.00    -0.216 N 
ATOM      9  C           0     135.006 135.805 143.149  0.00  0.00     0.670 C 
ATOM     10  N           0     134.406 136.871 142.697  0.00  0.00    -0.235 N 
ATOM     11  H           0     134.809 137.744 142.826  0.00  0.00     0.174 HD
ATOM     12  H           0     133.560 136.790 142.231  0.00  0.00     0.174 HD
ATOM     13  C           0     135.580 133.583 143.385  0.00  0.00     0.217 C 
ATOM     14  N           0     134.516 134.530 143.013  0.00  0.00    -0.191 N 
ATOM     15  N           0     135.143 132.702 144.468  0.00  0.00    -0.183 N 
ATOM     16  C           0     134.326 131.661 143.818  0.00  0.00     0.150 C 
ATOM     17  C           0     135.059 131.375 142.485  0.00  0.00     0.093 C 
ATOM     18  C           0     135.889 132.652 142.199  0.00  0.00     0.209 C 
ATOM     19  H           0     136.443 134.187 146.970  0.00  0.00     0.178 HD
ATOM     20  H           0     136.606 136.585 144.259  0.00  0.00     0.178 HD
ATOM     21  H           0     133.622 134.293 142.720  0.00  0.00     0.180 HD
ENDROOT
BRANCH   6  22
ATOM     22  C           0     138.359 132.927 144.877  0.00  0.00     0.208 C 
BRANCH  22  23
ATOM     23  O           0     139.013 132.611 146.133  0.00  0.00    -0.302 OA
BRANCH  23  24
ATOM     24  C           0     139.978 131.673 146.174  0.00  0.00     0.358 C 
ATOM     25  N           0     139.674 130.407 146.523  0.00  0.00    -0.346 N 
ATOM     26  H           0     138.759 130.172 146.746  0.00  0.00     0.161 HD
ATOM     27  H           0     140.369 129.732 146.553  0.00  0.00     0.161 HD
ATOM     28  O           0     141.123 131.968 145.894  0.00  0.00    -0.239 OA
ENDBRANCH  23  24
ENDBRANCH  22  23
ENDBRANCH   6  22
BRANCH  18  29
ATOM     29  O           0     135.474 133.250 140.969  0.00  0.00    -0.362 OA
ATOM     30  H           0     135.183 132.529 140.393  0.00  0.00     0.213 HD
ENDBRANCH  18  29
BRANCH  18  31
ATOM     31  O           0     137.283 132.343 142.160  0.00  0.00    -0.362 OA
ATOM     32  H           0     137.382 131.451 142.521  0.00  0.00     0.213 HD
ENDBRANCH  18  31
TORSDOF 5
ENDMDL
MODEL 2
REMARK VINA RESULT:      -6.9      1.661      2.154
REMARK  5 active torsions:
REMARK  status: ('A' for Active; 'I' for Inactive)
REMARK    1  A    between atoms: C_6  and  C_7 
REMARK    2  A    between atoms: C_7  and  O_8 
REMARK    3  A    between atoms: O_8  and  C_9 
REMARK       I    between atoms: C_9  and  N_10 
REMARK    4  A    between atoms: C_23  and  O_24 
REMARK    5  A    between atoms: C_23  and  O_25 
ROOT
ATOM      1  N           0     136.038 134.637 146.699  0.00  0.00    -0.235 N 
ATOM      2  H           0     136.482 135.465 146.937  0.00  0.00     0.174 HD
ATOM      3  H           0     135.592 134.112 147.382  0.00  0.00     0.174 HD
ATOM      4  C           0     136.037 134.230 145.460  0.00  0.00     0.672 C 
ATOM      5  N           0     136.656 134.945 144.449  0.00  0.00    -0.218 N 
ATOM      6  C           0     137.163 134.212 143.293  0.00  0.00     0.151 C 
ATOM      7  C           0     136.124 133.289 142.685  0.00  0.00     0.180 C 
ATOM      8  N           0     135.169 134.089 141.890  0.00  0.00    -0.216 N 
ATOM      9  C           0     133.916 133.568 142.101  0.00  0.00     0.670 C 
ATOM     10  N           0     132.897 133.769 141.313  0.00  0.00    -0.235 N 
ATOM     11  H           0     132.999 134.316 140.519  0.00  0.00     0.174 HD
ATOM     12  H           0     132.038 133.370 141.521  0.00  0.00     0.174 HD
ATOM     13  C           0     135.248 132.582 143.706  0.00  0.00     0.217 C 
ATOM     14  N           0     133.869 132.810 143.245  0.00  0.00    -0.191 N 
ATOM     15  N           0     135.429 133.064 145.075  0.00  0.00    -0.183 N 
ATOM     16  C           0     134.873 132.006 145.939  0.00  0.00     0.150 C 
ATOM     17  C           0     135.291 130.687 145.244  0.00  0.00     0.093 C 
ATOM     18  C           0     135.536 131.071 143.763  0.00  0.00     0.209 C 
ATOM     19  H           0     136.749 135.909 144.507  0.00  0.00     0.178 HD
ATOM     20  H           0     135.387 134.845 141.322  0.00  0.00     0.178 HD
ATOM     21  H           0     133.064 132.479 143.674  0.00  0.00     0.180 HD
ENDROOT
BRANCH   6  22
ATOM     22  C           0     138.369 133.378 143.729  0.00  0.00     0.208 C 
BRANCH  22  23
ATOM     23  O           0     138.269 133.085 145.147  0.00  0.00    -0.302 OA
BRANCH  23  24
ATOM     24  C           0     139.075 132.160 145.702  0.00  0.00     0.358 C 
ATOM     25  N           0     138.680 130.873 145.768  0.00  0.00    -0.346 N 
ATOM     26  H           0     137.814 130.613 145.415  0.00  0.00     0.161 HD
ATOM     27  H           0     139.260 130.207 146.169  0.00  0.00     0.161 HD
ATOM     28  O           0     140.159 132.486 146.144  0.00  0.00    -0.239 OA
ENDBRANCH  23  24
ENDBRANCH  22  23
ENDBRANCH   6  22
BRANCH  18  29
ATOM     29  O           0     134.643 130.356 142.909  0.00  0.00    -0.362 OA
ATOM     30  H           0     135.026 129.477 142.777  0.00  0.00     0.213 HD
ENDBRANCH  18  29
BRANCH  18  31
ATOM     31  O           0     136.893 130.811 143.399  0.00  0.00    -0.362 OA
ATOM     32  H           0     137.387 131.626 143.561  0.00  0.00     0.213 HD
ENDBRANCH  18  31
TORSDOF 5
ENDMDL
MODEL 3
REMARK VINA RESULT:      -6.9      2.674      4.959
REMARK  5 active torsions:
REMARK  status: ('A' for Active; 'I' for Inactive)
REMARK    1  A    between atoms: C_6  and  C_7 
REMARK    2  A    between atoms: C_7  and  O_8 
REMARK    3  A    between atoms: O_8  and  C_9 
REMARK       I    between atoms: C_9  and  N_10 
REMARK    4  A    between atoms: C_23  and  O_24 
REMARK    5  A    between atoms: C_23  and  O_25 
ROOT
ATOM      1  N           0     139.645 130.575 146.047  0.00  0.00    -0.235 N 
ATOM      2  H           0     140.399 130.723 145.455  0.00  0.00     0.174 HD
ATOM      3  H           0     139.674 129.856 146.698  0.00  0.00     0.174 HD
ATOM      4  C           0     138.594 131.342 145.970  0.00  0.00     0.672 C 
ATOM      5  N           0     138.506 132.382 145.061  0.00  0.00    -0.218 N 
ATOM      6  C           0     137.183 132.776 144.586  0.00  0.00     0.151 C 
ATOM      7  C           0     136.206 133.023 145.719  0.00  0.00     0.180 C 
ATOM      8  N           0     136.492 134.337 146.332  0.00  0.00    -0.216 N 
ATOM      9  C           0     136.341 134.202 147.691  0.00  0.00     0.670 C 
ATOM     10  N           0     136.157 135.200 148.509  0.00  0.00    -0.235 N 
ATOM     11  H           0     136.121 136.107 148.167  0.00  0.00     0.174 HD
ATOM     12  H           0     136.057 135.034 149.460  0.00  0.00     0.174 HD
ATOM     13  C           0     136.335 132.044 146.875  0.00  0.00     0.217 C 
ATOM     14  N           0     136.406 132.888 148.080  0.00  0.00    -0.191 N 
ATOM     15  N           0     137.502 131.168 146.780  0.00  0.00    -0.183 N 
ATOM     16  C           0     137.221 130.042 147.689  0.00  0.00     0.150 C 
ATOM     17  C           0     135.708 129.771 147.507  0.00  0.00     0.093 C 
ATOM     18  C           0     135.122 131.101 146.969  0.00  0.00     0.209 C 
ATOM     19  H           0     139.303 132.838 144.749  0.00  0.00     0.178 HD
ATOM     20  H           0     136.742 135.147 145.861  0.00  0.00     0.178 HD
ATOM     21  H           0     136.483 132.569 148.992  0.00  0.00     0.180 HD
ENDROOT
BRANCH   6  22
ATOM     22  C           0     136.630 131.667 143.690  0.00  0.00     0.208 C 
BRANCH  22  23
ATOM     23  O           0     135.339 132.068 143.163  0.00  0.00    -0.302 OA
BRANCH  23  24
ATOM     24  C           0     135.255 133.089 142.289  0.00  0.00     0.358 C 
ATOM     25  N           0     135.924 133.032 141.120  0.00  0.00    -0.346 N 
ATOM     26  H           0     136.466 132.255 140.908  0.00  0.00     0.161 HD
ATOM     27  H           0     135.864 133.767 140.490  0.00  0.00     0.161 HD
ATOM     28  O           0     134.577 134.062 142.554  0.00  0.00    -0.239 OA
ENDBRANCH  23  24
ENDBRANCH  22  23
ENDBRANCH   6  22
BRANCH  18  29
ATOM     29  O           0     134.150 131.620 147.878  0.00  0.00    -0.362 OA
ATOM     30  H           0     133.598 130.875 148.153  0.00  0.00     0.213 HD
ENDBRANCH  18  29
BRANCH  18  31
ATOM     31  O           0     134.544 130.905 145.676  0.00  0.00    -0.362 OA
ATOM     32  H           0     135.093 130.251 145.222  0.00  0.00     0.213 HD
ENDBRANCH  18  31
TORSDOF 5
ENDMDL
MODEL 4
REMARK VINA RESULT:      -6.9      8.254     10.458
REMARK  5 active torsions:
REMARK  status: ('A' for Active; 'I' for Inactive)
REMARK    1  A    between atoms: C_6  and  C_7 
REMARK    2  A    between atoms: C_7  and  O_8 
REMARK    3  A    between atoms: O_8  and  C_9 
REMARK       I    between atoms: C_9  and  N_10 
REMARK    4  A    between atoms: C_23  and  O_24 
REMARK    5  A    between atoms: C_23  and  O_25 
ROOT
ATOM      1  N           0     131.403 132.141 134.994  0.00  0.00    -0.235 N 
ATOM      2  H           0     130.812 131.797 135.681  0.00  0.00     0.174 HD
ATOM      3  H           0     131.778 131.540 134.331  0.00  0.00     0.174 HD
ATOM      4  C           0     131.692 133.412 134.958  0.00  0.00     0.672 C 
ATOM      5  N           0     131.180 134.310 135.878  0.00  0.00    -0.218 N 
ATOM      6  C           0     131.963 135.502 136.191  0.00  0.00     0.151 C 
ATOM      7  C           0     132.400 136.257 134.950  0.00  0.00     0.180 C 
ATOM      8  N           0     131.253 137.022 134.417  0.00  0.00    -0.216 N 
ATOM      9  C           0     131.297 136.935 133.047  0.00  0.00     0.670 C 
ATOM     10  N           0     130.685 137.756 132.241  0.00  0.00    -0.235 N 
ATOM     11  H           0     130.157 138.486 132.602  0.00  0.00     0.174 HD
ATOM     12  H           0     130.759 137.638 131.281  0.00  0.00     0.174 HD
ATOM     13  C           0     132.812 135.362 133.792  0.00  0.00     0.217 C 
ATOM     14  N           0     132.066 135.877 132.632  0.00  0.00    -0.191 N 
ATOM     15  N           0     132.528 133.944 134.011  0.00  0.00    -0.183 N 
ATOM     16  C           0     133.371 133.223 133.040  0.00  0.00     0.150 C 
ATOM     17  C           0     134.699 134.019 133.020  0.00  0.00     0.093 C 
ATOM     18  C           0     134.324 135.439 133.517  0.00  0.00     0.209 C 
ATOM     19  H           0     130.323 134.152 136.302  0.00  0.00     0.178 HD
ATOM     20  H           0     130.589 137.499 134.940  0.00  0.00     0.178 HD
ATOM     21  H           0     132.113 135.530 131.727  0.00  0.00     0.180 HD
ENDROOT
BRANCH   6  22
ATOM     22  C           0     133.207 135.083 136.977  0.00  0.00     0.208 C 
BRANCH  22  23
ATOM     23  O           0     132.807 134.334 138.154  0.00  0.00    -0.302 OA
BRANCH  23  24
ATOM     24  C           0     133.065 134.821 139.382  0.00  0.00     0.358 C 
ATOM     25  N           0     133.496 136.090 139.527  0.00  0.00    -0.346 N 
ATOM     26  H           0     133.621 136.653 138.747  0.00  0.00     0.161 HD
ATOM     27  H           0     133.683 136.441 140.412  0.00  0.00     0.161 HD
ATOM     28  O           0     132.909 134.117 140.360  0.00  0.00    -0.239 OA
ENDBRANCH  23  24
ENDBRANCH  22  23
ENDBRANCH   6  22
BRANCH  18  29
ATOM     29  O           0     134.604 136.410 132.507  0.00  0.00    -0.362 OA
ATOM     30  H           0     135.391 136.104 132.036  0.00  0.00     0.213 HD
ENDBRANCH  18  29
BRANCH  18  31
ATOM     31  O           0     135.033 135.749 134.719  0.00  0.00    -0.362 OA
ATOM     32  H           0     135.813 135.178 134.738  0.00  0.00     0.213 HD
ENDBRANCH  18  31
TORSDOF 5
ENDMDL
MODEL 5
REMARK VINA RESULT:      -6.9      2.170      5.499
REMARK  5 active torsions:
REMARK  status: ('A' for Active; 'I' for Inactive)
REMARK    1  A    between atoms: C_6  and  C_7 
REMARK    2  A    between atoms: C_7  and  O_8 
REMARK    3  A    between atoms: O_8  and  C_9 
REMARK       I    between atoms: C_9  and  N_10 
REMARK    4  A    between atoms: C_23  and  O_24 
REMARK    5  A    between atoms: C_23  and  O_25 
ROOT
ATOM      1  N           0     134.910 129.756 145.462  0.00  0.00    -0.235 N 
ATOM      2  H           0     134.573 129.313 144.668  0.00  0.00     0.174 HD
ATOM      3  H           0     134.660 129.432 146.342  0.00  0.00     0.174 HD
ATOM      4  C           0     135.703 130.784 145.348  0.00  0.00     0.672 C 
ATOM      5  N           0     136.093 131.281 144.116  0.00  0.00    -0.218 N 
ATOM      6  C           0     136.418 132.701 144.014  0.00  0.00     0.151 C 
ATOM      7  C           0     137.413 133.149 145.067  0.00  0.00     0.180 C 
ATOM      8  N           0     138.767 132.703 144.679  0.00  0.00    -0.216 N 
ATOM      9  C           0     139.410 132.288 145.819  0.00  0.00     0.670 C 
ATOM     10  N           0     140.703 132.173 145.931  0.00  0.00    -0.235 N 
ATOM     11  H           0     141.276 132.388 145.178  0.00  0.00     0.174 HD
ATOM     12  H           0     141.093 131.874 146.767  0.00  0.00     0.174 HD
ATOM     13  C           0     137.198 132.518 146.433  0.00  0.00     0.217 C 
ATOM     14  N           0     138.522 132.008 146.827  0.00  0.00    -0.191 N 
ATOM     15  N           0     136.201 131.447 146.439  0.00  0.00    -0.183 N 
ATOM     16  C           0     135.812 131.284 147.852  0.00  0.00     0.150 C 
ATOM     17  C           0     135.782 132.727 148.411  0.00  0.00     0.093 C 
ATOM     18  C           0     136.703 133.543 147.469  0.00  0.00     0.209 C 
ATOM     19  H           0     136.149 130.701 143.341  0.00  0.00     0.178 HD
ATOM     20  H           0     139.136 132.704 143.781  0.00  0.00     0.178 HD
ATOM     21  H           0     138.731 131.554 147.658  0.00  0.00     0.180 HD
ENDROOT
BRANCH   6  22
ATOM     22  C           0     135.133 133.514 144.171  0.00  0.00     0.208 C 
BRANCH  22  23
ATOM     23  O           0     135.361 134.874 143.718  0.00  0.00    -0.302 OA
BRANCH  23  24
ATOM     24  C           0     134.505 135.448 142.851  0.00  0.00     0.358 C 
ATOM     25  N           0     134.514 136.784 142.680  0.00  0.00    -0.346 N 
ATOM     26  H           0     135.137 137.334 143.181  0.00  0.00     0.161 HD
ATOM     27  H           0     133.898 137.198 142.055  0.00  0.00     0.161 HD
ATOM     28  O           0     133.725 134.760 142.222  0.00  0.00    -0.239 OA
ENDBRANCH  23  24
ENDBRANCH  22  23
ENDBRANCH   6  22
BRANCH  18  29
ATOM     29  O           0     137.802 134.090 148.200  0.00  0.00    -0.362 OA
ATOM     30  H           0     137.869 133.586 149.023  0.00  0.00     0.213 HD
ENDBRANCH  18  29
BRANCH  18  31
ATOM     31  O           0     135.964 134.582 146.825  0.00  0.00    -0.362 OA
ATOM     32  H           0     135.347 134.151 146.217  0.00  0.00     0.213 HD
ENDBRANCH  18  31
TORSDOF 5
ENDMDL
MODEL 6
REMARK VINA RESULT:      -6.9      2.327      5.355
REMARK  5 active torsions:
REMARK  status: ('A' for Active; 'I' for Inactive)
REMARK    1  A    between atoms: C_6  and  C_7 
REMARK    2  A    between atoms: C_7  and  O_8 
REMARK    3  A    between atoms: O_8  and  C_9 
REMARK       I    between atoms: C_9  and  N_10 
REMARK    4  A    between atoms: C_23  and  O_24 
REMARK    5  A    between atoms: C_23  and  O_25 
ROOT
ATOM      1  N           0     136.052 134.623 147.228  0.00  0.00    -0.235 N 
ATOM      2  H           0     135.586 135.339 146.768  0.00  0.00     0.174 HD
ATOM      3  H           0     136.529 134.806 148.053  0.00  0.00     0.174 HD
ATOM      4  C           0     136.034 133.414 146.741  0.00  0.00     0.672 C 
ATOM      5  N           0     135.365 133.101 145.570  0.00  0.00    -0.218 N 
ATOM      6  C           0     135.860 131.987 144.767  0.00  0.00     0.151 C 
ATOM      7  C           0     136.056 130.722 145.580  0.00  0.00     0.180 C 
ATOM      8  N           0     134.741 130.096 145.829  0.00  0.00    -0.216 N 
ATOM      9  C           0     134.747 129.616 147.116  0.00  0.00     0.670 C 
ATOM     10  N           0     133.927 128.708 147.564  0.00  0.00    -0.235 N 
ATOM     11  H           0     133.258 128.326 146.974  0.00  0.00     0.174 HD
ATOM     12  H           0     133.986 128.413 148.486  0.00  0.00     0.174 HD
ATOM     13  C           0     136.617 130.960 146.973  0.00  0.00     0.217 C 
ATOM     14  N           0     135.724 130.213 147.874  0.00  0.00    -0.191 N 
ATOM     15  N           0     136.682 132.372 147.351  0.00  0.00    -0.183 N 
ATOM     16  C           0     137.629 132.431 148.479  0.00  0.00     0.150 C 
ATOM     17  C           0     138.731 131.409 148.107  0.00  0.00     0.093 C 
ATOM     18  C           0     138.057 130.434 147.110  0.00  0.00     0.209 C 
ATOM     19  H           0     134.587 133.608 145.292  0.00  0.00     0.178 HD
ATOM     20  H           0     134.006 130.033 145.198  0.00  0.00     0.178 HD
ATOM     21  H           0     135.813 130.151 148.838  0.00  0.00     0.180 HD
ENDROOT
BRANCH   6  22
ATOM     22  C           0     137.199 132.385 144.143  0.00  0.00     0.208 C 
BRANCH  22  23
ATOM     23  O           0     136.973 133.357 143.089  0.00  0.00    -0.302 OA
BRANCH  23  24
ATOM     24  C           0     137.486 134.598 143.195  0.00  0.00     0.358 C 
ATOM     25  N           0     136.694 135.625 143.560  0.00  0.00    -0.346 N 
ATOM     26  H           0     135.754 135.472 143.746  0.00  0.00     0.161 HD
ATOM     27  H           0     137.063 136.519 143.636  0.00  0.00     0.161 HD
ATOM     28  O           0     138.662 134.790 142.962  0.00  0.00    -0.239 OA
ENDBRANCH  23  24
ENDBRANCH  22  23
ENDBRANCH   6  22
BRANCH  18  29
ATOM     29  O           0     138.059 129.105 147.635  0.00  0.00    -0.362 OA
ATOM     30  H           0     137.164 128.930 147.957  0.00  0.00     0.213 HD
ENDBRANCH  18  29
BRANCH  18  31
ATOM     31  O           0     138.722 130.473 145.846  0.00  0.00    -0.362 OA
ATOM     32  H           0     138.826 129.556 145.556  0.00  0.00     0.213 HD
ENDBRANCH  18  31
TORSDOF 5
ENDMDL
MODEL 7
REMARK VINA RESULT:      -6.7      9.035     11.473
REMARK  5 active torsions:
REMARK  status: ('A' for Active; 'I' for Inactive)
REMARK    1  A    between atoms: C_6  and  C_7 
REMARK    2  A    between atoms: C_7  and  O_8 
REMARK    3  A    between atoms: O_8  and  C_9 
REMARK       I    between atoms: C_9  and  N_10 
REMARK    4  A    between atoms: C_23  and  O_24 
REMARK    5  A    between atoms: C_23  and  O_25 
ROOT
ATOM      1  N           0     132.513 134.893 130.918  0.00  0.00    -0.235 N 
ATOM      2  H           0     133.233 135.154 130.323  0.00  0.00     0.174 HD
ATOM      3  H           0     131.609 135.207 130.753  0.00  0.00     0.174 HD
ATOM      4  C           0     132.757 134.118 131.937  0.00  0.00     0.672 C 
ATOM      5  N           0     134.027 133.640 132.212  0.00  0.00    -0.218 N 
ATOM      6  C           0     134.368 133.341 133.600  0.00  0.00     0.151 C 
ATOM      7  C           0     133.345 132.447 134.273  0.00  0.00     0.180 C 
ATOM      8  N           0     133.539 131.056 133.815  0.00  0.00    -0.216 N 
ATOM      9  C           0     132.295 130.499 133.642  0.00  0.00     0.670 C 
ATOM     10  N           0     132.066 129.217 133.600  0.00  0.00    -0.235 N 
ATOM     11  H           0     132.800 128.590 133.694  0.00  0.00     0.174 HD
ATOM     12  H           0     131.161 128.890 133.476  0.00  0.00     0.174 HD
ATOM     13  C           0     131.905 132.759 133.897  0.00  0.00     0.217 C 
ATOM     14  N           0     131.323 131.460 133.520  0.00  0.00    -0.191 N 
ATOM     15  N           0     131.775 133.727 132.809  0.00  0.00    -0.183 N 
ATOM     16  C           0     130.390 134.227 132.895  0.00  0.00     0.150 C 
ATOM     17  C           0     130.115 134.336 134.414  0.00  0.00     0.093 C 
ATOM     18  C           0     131.120 133.360 135.076  0.00  0.00     0.209 C 
ATOM     19  H           0     134.672 133.508 131.501  0.00  0.00     0.178 HD
ATOM     20  H           0     134.390 130.615 133.664  0.00  0.00     0.178 HD
ATOM     21  H           0     130.408 131.309 133.236  0.00  0.00     0.180 HD
ENDROOT
BRANCH   6  22
ATOM     22  C           0     134.464 134.654 134.378  0.00  0.00     0.208 C 
BRANCH  22  23
ATOM     23  O           0     134.753 134.372 135.772  0.00  0.00    -0.302 OA
BRANCH  23  24
ATOM     24  C           0     135.041 135.379 136.619  0.00  0.00     0.358 C 
ATOM     25  N           0     134.397 135.472 137.799  0.00  0.00    -0.346 N 
ATOM     26  H           0     133.726 134.814 138.039  0.00  0.00     0.161 HD
ATOM     27  H           0     134.604 136.198 138.408  0.00  0.00     0.161 HD
ATOM     28  O           0     135.882 136.203 136.318  0.00  0.00    -0.239 OA
ENDBRANCH  23  24
ENDBRANCH  22  23
ENDBRANCH   6  22
BRANCH  18  29
ATOM     29  O           0     130.423 132.338 135.791  0.00  0.00    -0.362 OA
ATOM     30  H           0     131.055 131.952 136.413  0.00  0.00     0.213 HD
ENDBRANCH  18  29
BRANCH  18  31
ATOM     31  O           0     132.002 134.068 135.950  0.00  0.00    -0.362 OA
ATOM     32  H           0     132.814 133.546 136.010  0.00  0.00     0.213 HD
ENDBRANCH  18  31
TORSDOF 5
ENDMDL
MODEL 8
REMARK VINA RESULT:      -6.6      4.140      6.422
REMARK  5 active torsions:
REMARK  status: ('A' for Active; 'I' for Inactive)
REMARK    1  A    between atoms: C_6  and  C_7 
REMARK    2  A    between atoms: C_7  and  O_8 
REMARK    3  A    between atoms: O_8  and  C_9 
REMARK       I    between atoms: C_9  and  N_10 
REMARK    4  A    between atoms: C_23  and  O_24 
REMARK    5  A    between atoms: C_23  and  O_25 
ROOT
ATOM      1  N           0     134.547 132.142 149.529  0.00  0.00    -0.235 N 
ATOM      2  H           0     134.117 131.850 150.348  0.00  0.00     0.174 HD
ATOM      3  H           0     134.502 133.074 149.263  0.00  0.00     0.174 HD
ATOM      4  C           0     135.189 131.283 148.788  0.00  0.00     0.672 C 
ATOM      5  N           0     135.286 129.944 149.127  0.00  0.00    -0.218 N 
ATOM      6  C           0     135.432 128.967 148.052  0.00  0.00     0.151 C 
ATOM      7  C           0     136.551 129.319 147.091  0.00  0.00     0.180 C 
ATOM      8  N           0     137.849 128.984 147.713  0.00  0.00    -0.216 N 
ATOM      9  C           0     138.734 129.983 147.387  0.00  0.00     0.670 C 
ATOM     10  N           0     140.031 129.860 147.445  0.00  0.00    -0.235 N 
ATOM     11  H           0     140.426 129.022 147.731  0.00  0.00     0.174 HD
ATOM     12  H           0     140.599 130.606 147.200  0.00  0.00     0.174 HD
ATOM     13  C           0     136.664 130.804 146.785  0.00  0.00     0.217 C 
ATOM     14  N           0     138.085 131.126 146.994  0.00  0.00    -0.191 N 
ATOM     15  N           0     135.807 131.646 147.619  0.00  0.00    -0.183 N 
ATOM     16  C           0     135.708 132.932 146.905  0.00  0.00     0.150 C 
ATOM     17  C           0     135.627 132.535 145.411  0.00  0.00     0.093 C 
ATOM     18  C           0     136.264 131.124 145.334  0.00  0.00     0.209 C 
ATOM     19  H           0     135.259 129.664 150.054  0.00  0.00     0.178 HD
ATOM     20  H           0     138.042 128.201 148.253  0.00  0.00     0.178 HD
ATOM     21  H           0     138.493 131.998 146.872  0.00  0.00     0.180 HD
ENDROOT
BRANCH   6  22
ATOM     22  C           0     134.118 128.892 147.272  0.00  0.00     0.208 C 
BRANCH  22  23
ATOM     23  O           0     133.106 128.247 148.089  0.00  0.00    -0.302 OA
BRANCH  23  24
ATOM     24  C           0     132.247 127.373 147.532  0.00  0.00     0.358 C 
ATOM     25  N           0     132.700 126.204 147.037  0.00  0.00    -0.346 N 
ATOM     26  H           0     133.646 125.993 147.082  0.00  0.00     0.161 HD
ATOM     27  H           0     132.081 125.575 146.635  0.00  0.00     0.161 HD
ATOM     28  O           0     131.062 127.638 147.476  0.00  0.00    -0.239 OA
ENDBRANCH  23  24
ENDBRANCH  22  23
ENDBRANCH   6  22
BRANCH  18  29
ATOM     29  O           0     137.414 131.143 144.487  0.00  0.00    -0.362 OA
ATOM     30  H           0     137.537 130.240 144.162  0.00  0.00     0.213 HD
ENDBRANCH  18  29
BRANCH  18  31
ATOM     31  O           0     135.309 130.172 144.860  0.00  0.00    -0.362 OA
ATOM     32  H           0     134.436 130.503 145.111  0.00  0.00     0.213 HD
ENDBRANCH  18  31
TORSDOF 5
ENDMDL
MODEL 9
REMARK VINA RESULT:      -6.5      9.690     12.263
REMARK  5 active torsions:
REMARK  status: ('A' for Active; 'I' for Inactive)
REMARK    1  A    between atoms: C_6  and  C_7 
REMARK    2  A    between atoms: C_7  and  O_8 
REMARK    3  A    between atoms: O_8  and  C_9 
REMARK       I    between atoms: C_9  and  N_10 
REMARK    4  A    between atoms: C_23  and  O_24 
REMARK    5  A    between atoms: C_23  and  O_25 
ROOT
ATOM      1  N           0     128.874 133.788 131.944  0.00  0.00    -0.235 N 
ATOM      2  H           0     128.178 133.324 131.455  0.00  0.00     0.174 HD
ATOM      3  H           0     129.011 134.739 131.808  0.00  0.00     0.174 HD
ATOM      4  C           0     129.624 133.137 132.789  0.00  0.00     0.672 C 
ATOM      5  N           0     129.465 131.782 133.022  0.00  0.00    -0.218 N 
ATOM      6  C           0     130.632 131.010 133.438  0.00  0.00     0.151 C 
ATOM      7  C           0     131.357 131.635 134.615  0.00  0.00     0.180 C 
ATOM      8  N           0     130.600 131.357 135.854  0.00  0.00    -0.216 N 
ATOM      9  C           0     130.647 132.490 136.630  0.00  0.00     0.670 C 
ATOM     10  N           0     130.414 132.509 137.912  0.00  0.00    -0.235 N 
ATOM     11  H           0     130.191 131.687 138.377  0.00  0.00     0.174 HD
ATOM     12  H           0     130.464 133.345 138.401  0.00  0.00     0.174 HD
ATOM     13  C           0     131.431 133.152 134.564  0.00  0.00     0.217 C 
ATOM     14  N           0     130.968 133.599 135.888  0.00  0.00    -0.191 N 
ATOM     15  N           0     130.624 133.748 133.499  0.00  0.00    -0.183 N 
ATOM     16  C           0     131.158 135.111 133.320  0.00  0.00     0.150 C 
ATOM     17  C           0     132.688 134.948 133.490  0.00  0.00     0.093 C 
ATOM     18  C           0     132.866 133.649 134.317  0.00  0.00     0.209 C 
ATOM     19  H           0     128.601 131.357 132.912  0.00  0.00     0.178 HD
ATOM     20  H           0     130.153 130.527 136.079  0.00  0.00     0.178 HD
ATOM     21  H           0     130.904 134.520 136.186  0.00  0.00     0.180 HD
ENDROOT
BRANCH   6  22
ATOM     22  C           0     131.602 130.908 132.259  0.00  0.00     0.208 C 
BRANCH  22  23
ATOM     23  O           0     131.829 129.511 131.937  0.00  0.00    -0.302 OA
BRANCH  23  24
ATOM     24  C           0     132.339 128.680 132.866  0.00  0.00     0.358 C 
ATOM     25  N           0     131.620 127.621 133.290  0.00  0.00    -0.346 N 
ATOM     26  H           0     130.735 127.458 132.927  0.00  0.00     0.161 HD
ATOM     27  H           0     131.987 127.022 133.959  0.00  0.00     0.161 HD
ATOM     28  O           0     133.447 128.884 133.320  0.00  0.00    -0.239 OA
ENDBRANCH  23  24
ENDBRANCH  22  23
ENDBRANCH   6  22
BRANCH  18  29
ATOM     29  O           0     133.520 133.934 135.554  0.00  0.00    -0.362 OA
ATOM     30  H           0     133.086 133.395 136.230  0.00  0.00     0.213 HD
ENDBRANCH  18  29
BRANCH  18  31
ATOM     31  O           0     133.606 132.681 133.571  0.00  0.00    -0.362 OA
ATOM     32  H           0     132.969 132.022 133.260  0.00  0.00     0.213 HD
ENDBRANCH  18  31
TORSDOF 5
ENDMDL
