# created with PyMOL 2.3.4
@<TRIPOS>MOLECULE
ligand_out_0001
32 34 1                 
SMALL
USER_CHARGES
@<TRIPOS>ATOM
1	   N	134.935	132.047	146.706	N.3	1	UNK0	-0.235	
2	   N	136.429	133.761	146.099	N.3	1	UNK0	-0.218	
3	   N	136.205	135.819	143.819	N.3	1	UNK0	-0.216	
4	   N	134.406	136.871	142.697	N.3	1	UNK0	-0.235	
5	   N	134.516	134.530	143.013	N.3	1	UNK0	-0.191	
6	   N	135.143	132.702	144.468	N.3	1	UNK0	-0.183	
7	   N	139.674	130.407	146.523	N.pl3	1	UNK0	-0.346	
8	   C	135.476	132.805	145.793	C.3	1	UNK0	0.672	
9	   C	137.411	134.111	145.077	C.3	1	UNK0	0.151	
10	   C	136.771	134.456	143.747	C.3	1	UNK0	0.180	
11	   C	135.006	135.805	143.149	C.3	1	UNK0	0.670	
12	   C	135.580	133.583	143.385	C.3	1	UNK0	0.217	
13	   C	134.326	131.661	143.818	C.3	1	UNK0	0.150	
14	   C	135.059	131.375	142.485	C.3	1	UNK0	0.093	
15	   C	135.889	132.652	142.199	C.3	1	UNK0	0.209	
16	   C	138.359	132.927	144.877	C.2	1	UNK0	0.208	
17	   C	139.978	131.673	146.174	C.2	1	UNK0	0.358	
18	   O	139.013	132.611	146.133	O.2	1	UNK0	-0.302	
19	   O	141.123	131.968	145.894	O.co2	1	UNK0	-0.239	
20	   O	135.474	133.250	140.969	O.2	1	UNK0	-0.362	
21	   O	137.283	132.343	142.160	O.2	1	UNK0	-0.362	
22	   H	135.197	132.143	147.634	 H	1	UNK0	0.174	
23	   H	134.267	131.389	146.456	 H	1	UNK0	0.174	
24	   H	134.809	137.744	142.826	 H	1	UNK0	0.174	
25	   H	133.560	136.790	142.231	 H	1	UNK0	0.174	
26	   H	136.443	134.187	146.970	 H	1	UNK0	0.178	
27	   H	136.606	136.585	144.259	 H	1	UNK0	0.178	
28	   H	133.622	134.293	142.720	 H	1	UNK0	0.180	
29	   H	138.759	130.172	146.746	 H	1	UNK0	0.161	
30	   H	140.369	129.732	146.553	 H	1	UNK0	0.161	
31	   H	135.183	132.529	140.393	 H	1	UNK0	0.213	
32	   H	137.382	131.451	142.521	 H	1	UNK0	0.213	
@<TRIPOS>BOND
1 1 8 1
2 1 22 1
3 1 23 1
4 2 9 1
5 2 26 1
6 3 11 1
7 3 27 1
8 4 24 1
9 4 25 1
10 5 28 1
11 6 13 1
12 7 29 1
13 7 30 1
14 2 8 1
15 6 8 1
16 9 10 1
17 9 16 1
18 3 10 1
19 10 12 1
20 4 11 1
21 5 11 1
22 5 12 1
23 6 12 1
24 12 15 1
25 13 14 1
26 14 15 1
27 15 20 2
28 15 21 2
29 16 18 2
30 7 17 1
31 17 19 2
32 17 18 2
33 20 31 1
34 21 32 1
@<TRIPOS>SUBSTRUCTURE
1	UNK0	1	GROUP	1 ****	UNK
