# created with PyMOL 2.3.4
@<TRIPOS>MOLECULE
ligand_out_0001
32 34 1                 
SMALL
USER_CHARGES
@<TRIPOS>ATOM
1	   N	135.383	136.871	143.224	N.3	1	UNK0	-0.235	
2	   N	133.869	135.072	143.301	N.3	1	UNK0	-0.218	
3	   N	133.969	132.519	145.021	N.3	1	UNK0	-0.216	
4	   N	134.854	131.977	147.147	N.3	1	UNK0	-0.235	
5	   N	136.119	133.087	145.486	N.3	1	UNK0	-0.191	
6	   N	136.139	134.704	143.687	N.3	1	UNK0	-0.183	
7	   N	133.557	136.137	139.843	N.pl3	1	UNK0	-0.346	
8	   C	135.144	135.602	143.399	C.3	1	UNK0	0.672	
9	   C	133.728	133.679	142.887	C.3	1	UNK0	0.151	
10	   C	134.596	132.738	143.700	C.3	1	UNK0	0.180	
11	   C	134.973	132.496	145.958	C.3	1	UNK0	0.670	
12	   C	135.970	133.293	144.036	C.3	1	UNK0	0.217	
13	   C	137.596	134.928	143.657	C.3	1	UNK0	0.150	
14	   C	138.169	133.633	143.030	C.3	1	UNK0	0.093	
15	   C	137.089	132.550	143.285	C.3	1	UNK0	0.209	
16	   C	134.120	133.561	141.413	C.2	1	UNK0	0.208	
17	   C	133.223	134.859	139.573	C.2	1	UNK0	0.358	
18	   O	133.012	133.991	140.581	O.2	1	UNK0	-0.302	
19	   O	133.114	134.490	138.420	O.co2	1	UNK0	-0.239	
20	   O	137.622	131.497	144.090	O.2	1	UNK0	-0.362	
21	   O	136.599	132.034	142.046	O.2	1	UNK0	-0.362	
22	   H	134.656	137.478	143.017	 H	1	UNK0	0.174	
23	   H	136.290	137.209	143.304	 H	1	UNK0	0.174	
24	   H	134.014	131.574	147.418	 H	1	UNK0	0.174	
25	   H	135.604	131.994	147.761	 H	1	UNK0	0.174	
26	   H	133.089	135.612	143.502	 H	1	UNK0	0.178	
27	   H	133.021	132.410	145.195	 H	1	UNK0	0.178	
28	   H	136.894	133.326	146.017	 H	1	UNK0	0.180	
29	   H	133.645	136.432	140.763	 H	1	UNK0	0.161	
30	   H	133.709	136.762	139.117	 H	1	UNK0	0.161	
31	   H	137.117	131.493	144.915	 H	1	UNK0	0.213	
32	   H	135.653	131.869	142.168	 H	1	UNK0	0.213	
@<TRIPOS>BOND
1 1 8 1
2 1 22 1
3 1 23 1
4 2 9 1
5 2 26 1
6 3 11 1
7 3 27 1
8 4 24 1
9 4 25 1
10 5 28 1
11 6 13 1
12 7 29 1
13 7 30 1
14 2 8 1
15 6 8 1
16 9 10 1
17 9 16 1
18 3 10 1
19 10 12 1
20 4 11 1
21 5 11 1
22 5 12 1
23 6 12 1
24 12 15 1
25 13 14 1
26 14 15 1
27 15 20 2
28 15 21 2
29 16 18 2
30 7 17 1
31 17 19 2
32 17 18 2
33 20 31 1
34 21 32 1
@<TRIPOS>SUBSTRUCTURE
1	UNK0	1	GROUP	1 ****	UNK
