# created with PyMOL 2.3.4
@<TRIPOS>MOLECULE
ligand_out_0001
33 35 1                 
SMALL
USER_CHARGES
@<TRIPOS>ATOM
1	   N	134.615	131.877	146.502	N.3	1	UNK0	-0.235	
2	   N	136.182	133.556	145.996	N.3	1	UNK0	-0.218	
3	   N	136.102	135.726	143.804	N.3	1	UNK0	-0.216	
4	   N	134.373	136.915	142.710	N.3	1	UNK0	-0.235	
5	   N	134.358	134.559	142.931	N.3	1	UNK0	-0.191	
6	   N	134.875	132.628	144.298	N.3	1	UNK0	-0.179	
7	   N	139.627	130.212	146.621	N.pl3	1	UNK0	-0.346	
8	   C	135.197	132.654	145.633	C.3	1	UNK0	0.672	
9	   C	137.198	133.908	145.008	C.3	1	UNK0	0.151	
10	   C	136.598	134.338	143.683	C.3	1	UNK0	0.180	
11	   C	134.910	135.802	143.123	C.3	1	UNK0	0.670	
12	   C	135.368	133.546	143.271	C.3	1	UNK0	0.217	
13	   C	134.024	131.646	143.608	C.3	1	UNK0	0.106	
14	   C	132.560	132.087	143.671	C.3	1	UNK0	0.033	
15	   C	134.499	131.600	142.140	C.3	1	UNK0	0.098	
16	   C	135.645	132.646	142.050	C.3	1	UNK0	0.210	
17	   C	138.097	132.693	144.770	C.2	1	UNK0	0.208	
18	   C	138.531	130.969	146.418	C.2	1	UNK0	0.358	
19	   O	138.661	132.252	146.033	O.2	1	UNK0	-0.302	
20	   O	137.425	130.494	146.583	O.co2	1	UNK0	-0.239	
21	   O	135.560	133.388	140.832	O.2	1	UNK0	-0.362	
22	   O	136.920	132.013	142.172	O.2	1	UNK0	-0.362	
23	   H	134.868	131.919	147.437	 H	1	UNK0	0.174	
24	   H	133.924	131.260	146.214	 H	1	UNK0	0.174	
25	   H	134.817	137.761	142.880	 H	1	UNK0	0.174	
26	   H	133.529	136.898	142.234	 H	1	UNK0	0.174	
27	   H	136.197	133.944	146.884	 H	1	UNK0	0.178	
28	   H	136.538	136.452	144.278	 H	1	UNK0	0.178	
29	   H	133.456	134.382	142.621	 H	1	UNK0	0.180	
30	   H	140.510	130.591	146.489	 H	1	UNK0	0.161	
31	   H	139.533	129.287	146.899	 H	1	UNK0	0.161	
32	   H	134.825	134.008	140.934	 H	1	UNK0	0.213	
33	   H	136.934	131.575	143.034	 H	1	UNK0	0.213	
@<TRIPOS>BOND
1 1 8 1
2 1 23 1
3 1 24 1
4 2 9 1
5 2 27 1
6 3 11 1
7 3 28 1
8 4 25 1
9 4 26 1
10 5 29 1
11 6 13 1
12 7 30 1
13 7 31 1
14 2 8 1
15 6 8 1
16 9 10 1
17 9 17 1
18 3 10 1
19 10 12 1
20 4 11 1
21 5 11 1
22 5 12 1
23 6 12 1
24 12 16 1
25 13 14 1
26 13 15 1
27 15 16 1
28 16 21 2
29 16 22 2
30 17 19 2
31 7 18 1
32 18 20 2
33 18 19 2
34 21 32 1
35 22 33 1
@<TRIPOS>SUBSTRUCTURE
1	UNK0	1	GROUP	1 ****	UNK
