# created with PyMOL 2.3.4
@<TRIPOS>MOLECULE
ligand_out_0001
30 32 1                 
SMALL
USER_CHARGES
@<TRIPOS>ATOM
1	   N	134.871	132.132	146.363	N.3	1	UNK0	-0.235	
2	   N	136.475	133.666	145.582	N.3	1	UNK0	-0.218	
3	   N	136.150	135.946	143.535	N.3	1	UNK0	-0.216	
4	   N	134.361	137.347	142.875	N.3	1	UNK0	-0.235	
5	   N	134.155	134.994	143.007	N.3	1	UNK0	-0.191	
6	   N	134.750	132.963	144.179	N.3	1	UNK0	-0.183	
7	   C	135.342	132.889	145.413	C.3	1	UNK0	0.672	
8	   C	137.287	133.969	144.408	C.3	1	UNK0	0.151	
9	   C	136.469	134.529	143.259	C.3	1	UNK0	0.180	
10	   C	134.858	136.167	143.124	C.3	1	UNK0	0.670	
11	   C	135.107	133.874	143.090	C.3	1	UNK0	0.217	
12	   C	133.670	132.117	143.640	C.3	1	UNK0	0.150	
13	   C	134.081	131.859	142.171	C.3	1	UNK0	0.093	
14	   C	135.032	133.027	141.808	C.3	1	UNK0	0.209	
15	   C	137.978	132.687	143.941	C.2	1	UNK0	0.206	
16	   C	139.544	131.977	145.644	C.2	1	UNK0	0.254	
17	   C	140.905	132.033	146.289	C.3	1	UNK0	0.126	
18	   O	139.319	132.631	144.494	O.2	1	UNK0	-0.320	
19	   O	138.656	131.342	146.161	O.co2	1	UNK0	-0.266	
20	   O	134.492	133.793	140.730	O.2	1	UNK0	-0.362	
21	   O	136.327	132.528	141.467	O.2	1	UNK0	-0.362	
22	   H	135.317	132.100	147.224	 H	1	UNK0	0.174	
23	   H	134.072	131.604	146.212	 H	1	UNK0	0.174	
24	   H	134.914	138.137	142.978	 H	1	UNK0	0.174	
25	   H	133.440	137.433	142.586	 H	1	UNK0	0.174	
26	   H	136.722	134.000	146.459	 H	1	UNK0	0.178	
27	   H	136.744	136.600	143.935	 H	1	UNK0	0.178	
28	   H	133.196	134.916	142.886	 H	1	UNK0	0.180	
29	   H	133.566	133.531	140.637	 H	1	UNK0	0.213	
30	   H	136.603	132.994	140.666	 H	1	UNK0	0.213	
@<TRIPOS>BOND
1 1 7 1
2 1 22 1
3 1 23 1
4 2 8 1
5 2 26 1
6 3 10 1
7 3 27 1
8 4 24 1
9 4 25 1
10 5 28 1
11 6 12 1
12 2 7 1
13 6 7 1
14 8 9 1
15 8 15 1
16 3 9 1
17 9 11 1
18 4 10 1
19 5 10 1
20 5 11 1
21 6 11 1
22 11 14 1
23 12 13 1
24 13 14 1
25 14 20 2
26 14 21 2
27 15 18 2
28 16 17 1
29 16 19 2
30 16 18 2
31 20 29 1
32 21 30 1
@<TRIPOS>SUBSTRUCTURE
1	UNK0	1	GROUP	1 ****	UNK
