# created with PyMOL 2.3.4
@<TRIPOS>MOLECULE
ligand_out_0001
61 65 1                 
SMALL
USER_CHARGES
@<TRIPOS>ATOM
1	   N	137.637	133.062	149.528	N.pl3	1	UNK0	-0.335	
2	   N	138.141	133.259	146.314	N.pl3	1	UNK0	-0.359	
3	   N	135.010	134.121	143.335	N.pl3	1	UNK0	-0.281	
4	   N	134.737	134.822	137.471	N.3	1	UNK0	-0.135	
5	   N	134.774	134.699	136.191	N.3	1	UNK0	-0.066	
6	   N	133.604	134.899	135.691	N.3	1	UNK0	-0.261	
7	   N	130.415	133.335	135.098	N.pl3	1	UNK0	-0.361	
8	   N	133.134	130.680	148.949	N.3	1	UNK0	-0.218	
9	   N	132.580	128.609	149.917	N.3	1	UNK0	-0.235	
10	   N	134.590	128.870	148.747	N.3	1	UNK0	-0.183	
11	   N	135.390	129.078	146.474	N.3	1	UNK0	-0.191	
12	   N	134.760	131.260	146.396	N.3	1	UNK0	-0.216	
13	   N	135.129	130.111	144.362	N.3	1	UNK0	-0.235	
14	   C	136.410	133.612	149.430	C.2	1	UNK0	0.360	
15	   C	138.725	133.543	148.672	C.3	1	UNK0	0.144	
16	   C	138.842	132.641	147.442	C.3	1	UNK0	0.142	
17	   C	137.869	132.535	145.210	C.2	1	UNK0	0.219	
18	   C	137.148	133.172	144.051	C.3	1	UNK0	0.123	
19	   C	135.723	133.536	144.474	C.3	1	UNK0	0.145	
20	   C	134.516	133.431	142.292	C.2	1	UNK0	0.256	
21	   C	133.870	134.386	141.365	C.3	1	UNK0	0.016	
22	   C	134.020	135.609	141.900	C.3	1	UNK0	0.087	
23	   C	134.756	135.432	143.171	C.2	1	UNK0	0.251	
24	   C	133.183	134.053	140.066	C.3	1	UNK0	0.051	
25	   C	132.988	135.330	139.248	C.3	1	UNK0	0.067	
26	   C	133.483	135.107	137.842	C.3	1	UNK0	0.076	
27	   C	132.750	135.163	136.706	C.3	1	UNK0	0.142	
28	   C	133.259	134.850	134.268	C.3	1	UNK0	0.154	
29	   C	131.762	135.114	134.097	C.3	1	UNK0	0.041	
30	   C	131.035	133.791	133.851	C.3	1	UNK0	0.124	
31	   C	130.921	132.273	135.753	C.2	1	UNK0	0.213	
32	   C	130.284	131.805	137.036	C.3	1	UNK0	0.117	
33	   C	134.956	131.796	150.111	C.2	1	UNK0	0.208	
34	   C	134.262	131.589	148.764	C.3	1	UNK0	0.151	
35	   C	133.402	129.352	149.231	C.3	1	UNK0	0.672	
36	   C	135.520	129.566	147.856	C.3	1	UNK0	0.217	
37	   C	135.235	127.579	149.051	C.3	1	UNK0	0.150	
38	   C	135.278	131.065	147.768	C.3	1	UNK0	0.180	
39	   C	136.923	129.241	148.396	C.3	1	UNK0	0.209	
40	   C	135.095	130.147	145.664	C.3	1	UNK0	0.670	
41	   C	136.737	127.925	149.191	C.3	1	UNK0	0.093	
42	   O	136.207	134.506	148.632	O.co2	1	UNK0	-0.239	
43	   O	138.206	131.371	145.150	O.2	1	UNK0	-0.274	
44	   O	134.582	132.228	142.140	O.2	1	UNK0	-0.267	
45	   O	135.076	136.318	143.936	O.2	1	UNK0	-0.268	
46	   O	131.890	131.694	135.312	O.2	1	UNK0	-0.274	
47	   O	135.410	133.172	150.216	O.2	1	UNK0	-0.302	
48	   O	137.843	129.048	147.320	O.2	1	UNK0	-0.362	
49	   O	137.377	130.285	149.259	O.2	1	UNK0	-0.362	
50	   H	137.799	132.349	150.164	 H	1	UNK0	0.164	
51	   H	137.872	134.190	146.362	 H	1	UNK0	0.162	
52	   H	129.640	133.799	135.451	 H	1	UNK0	0.162	
53	   H	132.221	130.998	148.875	 H	1	UNK0	0.178	
54	   H	131.749	128.984	150.249	 H	1	UNK0	0.174	
55	   H	132.797	127.680	150.095	 H	1	UNK0	0.174	
56	   H	134.271	132.033	146.073	 H	1	UNK0	0.178	
57	   H	134.909	130.904	143.849	 H	1	UNK0	0.174	
58	   H	135.375	129.291	143.906	 H	1	UNK0	0.174	
59	   H	135.496	128.159	146.184	 H	1	UNK0	0.180	
60	   H	138.683	129.440	147.595	 H	1	UNK0	0.213	
61	   H	137.629	129.868	150.095	 H	1	UNK0	0.213	
@<TRIPOS>BOND
1 1 15 1
2 1 50 1
3 2 17 1
4 2 51 1
5 3 20 1
6 3 23 1
7 4 5 1
8 5 6 1
9 6 27 1
10 6 28 1
11 7 31 1
12 7 52 1
13 8 35 1
14 8 53 1
15 9 54 1
16 9 55 1
17 10 36 1
18 10 37 1
19 11 40 1
20 11 59 1
21 12 40 1
22 12 56 1
23 13 57 1
24 13 58 1
25 1 14 1
26 14 42 2
27 14 47 2
28 15 16 1
29 2 16 1
30 17 18 1
31 17 43 2
32 18 19 1
33 3 19 1
34 20 21 1
35 20 44 2
36 21 22 1
37 21 24 1
38 22 23 1
39 23 45 2
40 24 25 1
41 25 26 1
42 4 26 1
43 26 27 1
44 28 29 1
45 29 30 1
46 7 30 1
47 31 32 1
48 31 46 2
49 33 34 1
50 8 34 1
51 34 38 1
52 9 35 1
53 10 35 1
54 11 36 1
55 36 38 1
56 36 39 1
57 37 41 1
58 12 38 1
59 39 41 1
60 39 48 2
61 39 49 2
62 13 40 1
63 33 47 2
64 48 60 1
65 49 61 1
@<TRIPOS>SUBSTRUCTURE
1	UNK0	1	GROUP	1 ****	UNK
