MODEL 1
REMARK VINA RESULT:      -8.4      0.000      0.000
REMARK  18 active torsions:
REMARK  status: ('A' for Active; 'I' for Inactive)
REMARK    1  A    between atoms: C_6  and  C_7 
REMARK    2  A    between atoms: C_7  and  O_8 
REMARK    3  A    between atoms: O_8  and  C_9 
REMARK       I    between atoms: C_9  and  N_10 
REMARK    4  A    between atoms: N_10  and  C_11 
REMARK    5  A    between atoms: C_11  and  C_12 
REMARK    6  A    between atoms: C_12  and  N_13 
REMARK       I    between atoms: N_13  and  C_14 
REMARK    7  A    between atoms: C_14  and  C_15 
REMARK    8  A    between atoms: C_15  and  C_16 
REMARK    9  A    between atoms: C_16  and  N_17 
REMARK   10  A    between atoms: C_20  and  C_21 
REMARK   11  A    between atoms: C_21  and  C_22 
REMARK   12  A    between atoms: C_22  and  C_23 
REMARK   13  A    between atoms: N_25  and  C_26 
REMARK   14  A    between atoms: C_26  and  C_27 
REMARK   15  A    between atoms: C_27  and  C_28 
REMARK   16  A    between atoms: C_28  and  N_29 
REMARK       I    between atoms: N_29  and  C_30 
REMARK   17  A    between atoms: C_51  and  O_52 
REMARK   18  A    between atoms: C_51  and  O_53 
ROOT
ATOM      1  C           0     136.410 133.612 149.430  0.00  0.00     0.360 C 
ATOM      2  N           0     137.637 133.062 149.528  0.00  0.00    -0.335 N 
ATOM      3  O           0     136.207 134.506 148.632  0.00  0.00    -0.239 OA
ATOM      4  H           0     137.799 132.349 150.164  0.00  0.00     0.164 HD
ENDROOT
BRANCH   2   5
ATOM      5  C           0     138.725 133.543 148.672  0.00  0.00     0.144 C 
BRANCH   5   6
ATOM      6  C           0     138.842 132.641 147.442  0.00  0.00     0.142 C 
BRANCH   6   7
ATOM      7  N           0     138.141 133.259 146.314  0.00  0.00    -0.359 N 
ATOM      8  C           0     137.869 132.535 145.210  0.00  0.00     0.219 C 
ATOM      9  O           0     138.206 131.371 145.150  0.00  0.00    -0.274 OA
ATOM     10  H           0     137.872 134.190 146.362  0.00  0.00     0.162 HD
BRANCH   8  11
ATOM     11  C           0     137.148 133.172 144.051  0.00  0.00     0.123 C 
BRANCH  11  12
ATOM     12  C           0     135.723 133.536 144.474  0.00  0.00     0.145 C 
BRANCH  12  13
ATOM     13  N           0     135.010 134.121 143.335  0.00  0.00    -0.281 N 
ATOM     14  C           0     134.516 133.431 142.292  0.00  0.00     0.256 A 
ATOM     15  C           0     133.870 134.386 141.365  0.00  0.00     0.016 A 
ATOM     16  O           0     134.582 132.228 142.140  0.00  0.00    -0.267 OA
ATOM     17  C           0     134.020 135.609 141.900  0.00  0.00     0.087 A 
ATOM     18  C           0     134.756 135.432 143.171  0.00  0.00     0.251 A 
ATOM     19  O           0     135.076 136.318 143.936  0.00  0.00    -0.268 OA
BRANCH  15  20
ATOM     20  C           0     133.183 134.053 140.066  0.00  0.00     0.051 C 
BRANCH  20  21
ATOM     21  C           0     132.988 135.330 139.248  0.00  0.00     0.067 C 
BRANCH  21  22
ATOM     22  C           0     133.483 135.107 137.842  0.00  0.00     0.076 A 
ATOM     23  N           0     134.737 134.822 137.471  0.00  0.00    -0.135 NA
ATOM     24  N           0     134.774 134.699 136.191  0.00  0.00    -0.066 NA
ATOM     25  N           0     133.604 134.899 135.691  0.00  0.00    -0.261 N 
ATOM     26  C           0     132.750 135.163 136.706  0.00  0.00     0.142 A 
BRANCH  25  27
ATOM     27  C           0     133.259 134.850 134.268  0.00  0.00     0.154 C 
BRANCH  27  28
ATOM     28  C           0     131.762 135.114 134.097  0.00  0.00     0.041 C 
BRANCH  28  29
ATOM     29  C           0     131.035 133.791 133.851  0.00  0.00     0.124 C 
BRANCH  29  30
ATOM     30  N           0     130.415 133.335 135.098  0.00  0.00    -0.361 N 
ATOM     31  C           0     130.921 132.273 135.753  0.00  0.00     0.213 C 
ATOM     32  C           0     130.284 131.805 137.036  0.00  0.00     0.117 C 
ATOM     33  O           0     131.890 131.694 135.312  0.00  0.00    -0.274 OA
ATOM     34  H           0     129.640 133.799 135.451  0.00  0.00     0.162 HD
ENDBRANCH  29  30
ENDBRANCH  28  29
ENDBRANCH  27  28
ENDBRANCH  25  27
ENDBRANCH  21  22
ENDBRANCH  20  21
ENDBRANCH  15  20
ENDBRANCH  12  13
ENDBRANCH  11  12
ENDBRANCH   8  11
ENDBRANCH   6   7
ENDBRANCH   5   6
ENDBRANCH   2   5
BRANCH   1  35
ATOM     35  O           0     135.410 133.172 150.216  0.00  0.00    -0.302 OA
BRANCH  35  36
ATOM     36  C           0     134.956 131.796 150.111  0.00  0.00     0.208 C 
BRANCH  36  37
ATOM     37  C           0     134.262 131.589 148.764  0.00  0.00     0.151 C 
ATOM     38  N           0     133.134 130.680 148.949  0.00  0.00    -0.218 N 
ATOM     39  C           0     133.402 129.352 149.231  0.00  0.00     0.672 C 
ATOM     40  H           0     132.221 130.998 148.875  0.00  0.00     0.178 HD
ATOM     41  N           0     132.580 128.609 149.917  0.00  0.00    -0.235 N 
ATOM     42  N           0     134.590 128.870 148.747  0.00  0.00    -0.183 N 
ATOM     43  H           0     131.749 128.984 150.249  0.00  0.00     0.174 HD
ATOM     44  H           0     132.797 127.680 150.095  0.00  0.00     0.174 HD
ATOM     45  C           0     135.520 129.566 147.856  0.00  0.00     0.217 C 
ATOM     46  C           0     135.235 127.579 149.051  0.00  0.00     0.150 C 
ATOM     47  C           0     135.278 131.065 147.768  0.00  0.00     0.180 C 
ATOM     48  C           0     136.923 129.241 148.396  0.00  0.00     0.209 C 
ATOM     49  N           0     135.390 129.078 146.474  0.00  0.00    -0.191 N 
ATOM     50  N           0     134.760 131.260 146.396  0.00  0.00    -0.216 N 
ATOM     51  C           0     135.095 130.147 145.664  0.00  0.00     0.670 C 
ATOM     52  H           0     134.271 132.033 146.073  0.00  0.00     0.178 HD
ATOM     53  N           0     135.129 130.111 144.362  0.00  0.00    -0.235 N 
ATOM     54  H           0     134.909 130.904 143.849  0.00  0.00     0.174 HD
ATOM     55  H           0     135.375 129.291 143.906  0.00  0.00     0.174 HD
ATOM     56  C           0     136.737 127.925 149.191  0.00  0.00     0.093 C 
ATOM     57  H           0     135.496 128.159 146.184  0.00  0.00     0.180 HD
BRANCH  48  58
ATOM     58  O           0     137.843 129.048 147.320  0.00  0.00    -0.362 OA
ATOM     59  H           0     138.683 129.440 147.595  0.00  0.00     0.213 HD
ENDBRANCH  48  58
BRANCH  48  60
ATOM     60  O           0     137.377 130.285 149.259  0.00  0.00    -0.362 OA
ATOM     61  H           0     137.629 129.868 150.095  0.00  0.00     0.213 HD
ENDBRANCH  48  60
ENDBRANCH  36  37
ENDBRANCH  35  36
ENDBRANCH   1  35
TORSDOF 18
ENDMDL
MODEL 2
REMARK VINA RESULT:      -8.2      2.365     13.060
REMARK  18 active torsions:
REMARK  status: ('A' for Active; 'I' for Inactive)
REMARK    1  A    between atoms: C_6  and  C_7 
REMARK    2  A    between atoms: C_7  and  O_8 
REMARK    3  A    between atoms: O_8  and  C_9 
REMARK       I    between atoms: C_9  and  N_10 
REMARK    4  A    between atoms: N_10  and  C_11 
REMARK    5  A    between atoms: C_11  and  C_12 
REMARK    6  A    between atoms: C_12  and  N_13 
REMARK       I    between atoms: N_13  and  C_14 
REMARK    7  A    between atoms: C_14  and  C_15 
REMARK    8  A    between atoms: C_15  and  C_16 
REMARK    9  A    between atoms: C_16  and  N_17 
REMARK   10  A    between atoms: C_20  and  C_21 
REMARK   11  A    between atoms: C_21  and  C_22 
REMARK   12  A    between atoms: C_22  and  C_23 
REMARK   13  A    between atoms: N_25  and  C_26 
REMARK   14  A    between atoms: C_26  and  C_27 
REMARK   15  A    between atoms: C_27  and  C_28 
REMARK   16  A    between atoms: C_28  and  N_29 
REMARK       I    between atoms: N_29  and  C_30 
REMARK   17  A    between atoms: C_51  and  O_52 
REMARK   18  A    between atoms: C_51  and  O_53 
ROOT
ATOM      1  C           0     133.409 135.285 137.206  0.00  0.00     0.360 C 
ATOM      2  N           0     132.713 135.404 138.354  0.00  0.00    -0.335 N 
ATOM      3  O           0     134.619 135.185 137.237  0.00  0.00    -0.239 OA
ATOM      4  H           0     131.747 135.484 138.329  0.00  0.00     0.164 HD
ENDROOT
BRANCH   2   5
ATOM      5  C           0     133.417 135.414 139.640  0.00  0.00     0.144 C 
BRANCH   5   6
ATOM      6  C           0     133.237 134.061 140.329  0.00  0.00     0.142 C 
BRANCH   6   7
ATOM      7  N           0     134.543 133.551 140.752  0.00  0.00    -0.359 N 
ATOM      8  C           0     134.785 133.315 142.058  0.00  0.00     0.219 C 
ATOM      9  O           0     133.920 133.526 142.881  0.00  0.00    -0.274 OA
ATOM     10  H           0     135.235 133.383 140.093  0.00  0.00     0.162 HD
BRANCH   8  11
ATOM     11  C           0     136.129 132.791 142.492  0.00  0.00     0.123 C 
BRANCH  11  12
ATOM     12  C           0     136.941 133.927 143.120  0.00  0.00     0.145 C 
BRANCH  12  13
ATOM     13  N           0     137.550 133.460 144.368  0.00  0.00    -0.281 N 
ATOM     14  C           0     136.960 133.486 145.576  0.00  0.00     0.256 A 
ATOM     15  C           0     137.903 132.925 146.568  0.00  0.00     0.016 A 
ATOM     16  O           0     135.841 133.895 145.811  0.00  0.00    -0.267 OA
ATOM     17  C           0     139.021 132.597 145.899  0.00  0.00     0.087 A 
ATOM     18  C           0     138.787 132.944 144.481  0.00  0.00     0.251 A 
ATOM     19  O           0     139.578 132.790 143.572  0.00  0.00    -0.268 OA
BRANCH  15  20
ATOM     20  C           0     137.659 132.760 148.046  0.00  0.00     0.051 C 
BRANCH  20  21
ATOM     21  C           0     137.093 131.365 148.318  0.00  0.00     0.067 C 
BRANCH  21  22
ATOM     22  C           0     135.670 131.486 148.801  0.00  0.00     0.076 A 
ATOM     23  N           0     134.625 131.948 148.103  0.00  0.00    -0.135 NA
ATOM     24  N           0     133.575 131.897 148.845  0.00  0.00    -0.066 NA
ATOM     25  N           0     133.875 131.432 150.008  0.00  0.00    -0.261 N 
ATOM     26  C           0     135.199 131.157 150.026  0.00  0.00     0.142 A 
BRANCH  25  27
ATOM     27  C           0     132.941 131.236 151.120  0.00  0.00     0.154 C 
BRANCH  27  28
ATOM     28  C           0     131.725 130.446 150.632  0.00  0.00     0.041 C 
BRANCH  28  29
ATOM     29  C           0     132.135 128.999 150.355  0.00  0.00     0.124 C 
BRANCH  29  30
ATOM     30  N           0     132.450 128.844 148.933  0.00  0.00    -0.361 N 
ATOM     31  C           0     133.588 128.229 148.558  0.00  0.00     0.213 C 
ATOM     32  C           0     133.912 128.069 147.095  0.00  0.00     0.117 C 
ATOM     33  O           0     134.353 127.803 149.397  0.00  0.00    -0.274 OA
ATOM     34  H           0     131.838 129.184 148.261  0.00  0.00     0.162 HD
ENDBRANCH  29  30
ENDBRANCH  28  29
ENDBRANCH  27  28
ENDBRANCH  25  27
ENDBRANCH  21  22
ENDBRANCH  20  21
ENDBRANCH  15  20
ENDBRANCH  12  13
ENDBRANCH  11  12
ENDBRANCH   8  11
ENDBRANCH   6   7
ENDBRANCH   5   6
ENDBRANCH   2   5
BRANCH   1  35
ATOM     35  O           0     132.763 135.275 136.025  0.00  0.00    -0.302 OA
BRANCH  35  36
ATOM     36  C           0     133.463 134.876 134.817  0.00  0.00     0.208 C 
BRANCH  36  37
ATOM     37  C           0     133.217 133.390 134.551  0.00  0.00     0.151 C 
ATOM     38  N           0     133.910 133.009 133.325  0.00  0.00    -0.218 N 
ATOM     39  C           0     133.433 133.499 132.122  0.00  0.00     0.672 C 
ATOM     40  H           0     134.685 132.426 133.351  0.00  0.00     0.178 HD
ATOM     41  N           0     134.209 133.688 131.092  0.00  0.00    -0.235 N 
ATOM     42  N           0     132.091 133.777 132.085  0.00  0.00    -0.183 N 
ATOM     43  H           0     135.156 133.485 131.154  0.00  0.00     0.174 HD
ATOM     44  H           0     133.840 134.031 130.262  0.00  0.00     0.174 HD
ATOM     45  C           0     131.106 133.478 133.125  0.00  0.00     0.217 C 
ATOM     46  C           0     131.343 134.487 131.031  0.00  0.00     0.150 C 
ATOM     47  C           0     131.721 133.150 134.476  0.00  0.00     0.180 C 
ATOM     48  C           0     130.196 134.717 133.194  0.00  0.00     0.209 C 
ATOM     49  N           0     130.311 132.291 132.772  0.00  0.00    -0.191 N 
ATOM     50  N           0     131.452 131.706 134.648  0.00  0.00    -0.216 N 
ATOM     51  C           0     130.444 131.367 133.778  0.00  0.00     0.670 C 
ATOM     52  H           0     131.905 131.108 135.262  0.00  0.00     0.178 HD
ATOM     53  N           0     129.706 130.299 133.894  0.00  0.00    -0.235 N 
ATOM     54  H           0     129.853 129.685 134.630  0.00  0.00     0.174 HD
ATOM     55  H           0     129.010 130.118 133.244  0.00  0.00     0.174 HD
ATOM     56  C           0     130.353 135.389 131.806  0.00  0.00     0.093 C 
ATOM     57  H           0     129.780 132.182 131.967  0.00  0.00     0.180 HD
BRANCH  48  58
ATOM     58  O           0     128.837 134.331 133.410  0.00  0.00    -0.362 OA
ATOM     59  H           0     128.685 134.364 134.364  0.00  0.00     0.213 HD
ENDBRANCH  48  58
BRANCH  48  60
ATOM     60  O           0     130.635 135.599 134.227  0.00  0.00    -0.362 OA
ATOM     61  H           0     131.473 135.248 134.559  0.00  0.00     0.213 HD
ENDBRANCH  48  60
ENDBRANCH  36  37
ENDBRANCH  35  36
ENDBRANCH   1  35
TORSDOF 18
ENDMDL
MODEL 3
REMARK VINA RESULT:      -8.2      3.137     13.090
REMARK  18 active torsions:
REMARK  status: ('A' for Active; 'I' for Inactive)
REMARK    1  A    between atoms: C_6  and  C_7 
REMARK    2  A    between atoms: C_7  and  O_8 
REMARK    3  A    between atoms: O_8  and  C_9 
REMARK       I    between atoms: C_9  and  N_10 
REMARK    4  A    between atoms: N_10  and  C_11 
REMARK    5  A    between atoms: C_11  and  C_12 
REMARK    6  A    between atoms: C_12  and  N_13 
REMARK       I    between atoms: N_13  and  C_14 
REMARK    7  A    between atoms: C_14  and  C_15 
REMARK    8  A    between atoms: C_15  and  C_16 
REMARK    9  A    between atoms: C_16  and  N_17 
REMARK   10  A    between atoms: C_20  and  C_21 
REMARK   11  A    between atoms: C_21  and  C_22 
REMARK   12  A    between atoms: C_22  and  C_23 
REMARK   13  A    between atoms: N_25  and  C_26 
REMARK   14  A    between atoms: C_26  and  C_27 
REMARK   15  A    between atoms: C_27  and  C_28 
REMARK   16  A    between atoms: C_28  and  N_29 
REMARK       I    between atoms: N_29  and  C_30 
REMARK   17  A    between atoms: C_51  and  O_52 
REMARK   18  A    between atoms: C_51  and  O_53 
ROOT
ATOM      1  C           0     134.199 133.815 132.734  0.00  0.00     0.360 C 
ATOM      2  N           0     134.475 134.279 133.969  0.00  0.00    -0.335 N 
ATOM      3  O           0     133.532 134.483 131.969  0.00  0.00    -0.239 OA
ATOM      4  H           0     135.007 133.745 134.579  0.00  0.00     0.164 HD
ENDROOT
BRANCH   2   5
ATOM      5  C           0     133.970 135.589 134.389  0.00  0.00     0.144 C 
BRANCH   5   6
ATOM      6  C           0     132.826 135.397 135.386  0.00  0.00     0.142 C 
BRANCH   6   7
ATOM      7  N           0     133.331 135.576 136.749  0.00  0.00    -0.359 N 
ATOM      8  C           0     132.892 134.775 137.742  0.00  0.00     0.219 C 
ATOM      9  O           0     132.079 133.908 137.505  0.00  0.00    -0.274 OA
ATOM     10  H           0     133.982 136.271 136.939  0.00  0.00     0.162 HD
BRANCH   8  11
ATOM     11  C           0     133.412 134.960 139.144  0.00  0.00     0.123 C 
BRANCH  11  12
ATOM     12  C           0     132.630 134.056 140.100  0.00  0.00     0.145 C 
BRANCH  12  13
ATOM     13  N           0     133.364 133.932 141.363  0.00  0.00    -0.281 N 
ATOM     14  C           0     133.605 132.778 142.010  0.00  0.00     0.256 A 
ATOM     15  C           0     134.373 133.083 143.237  0.00  0.00     0.016 A 
ATOM     16  O           0     133.258 131.673 141.645  0.00  0.00    -0.267 OA
ATOM     17  C           0     134.545 134.415 143.267  0.00  0.00     0.087 A 
ATOM     18  C           0     133.892 134.957 142.056  0.00  0.00     0.251 A 
ATOM     19  O           0     133.842 136.128 141.739  0.00  0.00    -0.268 OA
BRANCH  15  20
ATOM     20  C           0     134.862 132.091 144.261  0.00  0.00     0.051 C 
BRANCH  20  21
ATOM     21  C           0     136.004 131.264 143.667  0.00  0.00     0.067 C 
BRANCH  21  22
ATOM     22  C           0     137.324 131.832 144.121  0.00  0.00     0.076 A 
ATOM     23  N           0     138.185 132.543 143.383  0.00  0.00    -0.135 NA
ATOM     24  N           0     139.198 132.856 144.113  0.00  0.00    -0.066 NA
ATOM     25  N           0     139.055 132.378 145.300  0.00  0.00    -0.261 N 
ATOM     26  C           0     137.875 131.717 145.351  0.00  0.00     0.142 A 
BRANCH  25  27
ATOM     27  C           0     140.006 132.524 146.404  0.00  0.00     0.154 C 
BRANCH  27  28
ATOM     28  C           0     141.032 131.390 146.347  0.00  0.00     0.041 C 
BRANCH  28  29
ATOM     29  C           0     140.923 130.540 147.614  0.00  0.00     0.124 C 
BRANCH  29  30
ATOM     30  N           0     139.795 129.615 147.487  0.00  0.00    -0.361 N 
ATOM     31  C           0     138.843 129.576 148.440  0.00  0.00     0.213 C 
ATOM     32  C           0     137.682 128.625 148.308  0.00  0.00     0.117 C 
ATOM     33  O           0     138.920 130.308 149.403  0.00  0.00    -0.274 OA
ATOM     34  H           0     139.733 129.030 146.716  0.00  0.00     0.162 HD
ENDBRANCH  29  30
ENDBRANCH  28  29
ENDBRANCH  27  28
ENDBRANCH  25  27
ENDBRANCH  21  22
ENDBRANCH  20  21
ENDBRANCH  15  20
ENDBRANCH  12  13
ENDBRANCH  11  12
ENDBRANCH   8  11
ENDBRANCH   6   7
ENDBRANCH   5   6
ENDBRANCH   2   5
BRANCH   1  35
ATOM     35  O           0     134.663 132.612 132.348  0.00  0.00    -0.302 OA
BRANCH  35  36
ATOM     36  C           0     133.755 131.482 132.244  0.00  0.00     0.208 C 
BRANCH  36  37
ATOM     37  C           0     133.331 131.039 133.645  0.00  0.00     0.151 C 
ATOM     38  N           0     133.244 129.581 133.672  0.00  0.00    -0.218 N 
ATOM     39  C           0     132.224 128.972 132.963  0.00  0.00     0.672 C 
ATOM     40  H           0     133.884 129.053 134.174  0.00  0.00     0.178 HD
ATOM     41  N           0     132.339 127.769 132.474  0.00  0.00    -0.235 N 
ATOM     42  N           0     131.085 129.718 132.802  0.00  0.00    -0.183 N 
ATOM     43  H           0     133.162 127.271 132.602  0.00  0.00     0.174 HD
ATOM     44  H           0     131.603 127.371 131.984  0.00  0.00     0.174 HD
ATOM     45  C           0     130.793 131.014 133.418  0.00  0.00     0.217 C 
ATOM     46  C           0     129.926 129.427 131.939  0.00  0.00     0.150 C 
ATOM     47  C           0     132.017 131.709 133.992  0.00  0.00     0.180 C 
ATOM     48  C           0     130.122 131.848 132.314  0.00  0.00     0.209 C 
ATOM     49  N           0     129.874 130.860 134.558  0.00  0.00    -0.191 N 
ATOM     50  N           0     131.809 131.644 135.455  0.00  0.00    -0.216 N 
ATOM     51  C           0     130.477 131.386 135.673  0.00  0.00     0.670 C 
ATOM     52  H           0     132.489 131.760 136.136  0.00  0.00     0.178 HD
ATOM     53  N           0     129.863 131.613 136.799  0.00  0.00    -0.235 N 
ATOM     54  H           0     130.349 131.987 137.551  0.00  0.00     0.174 HD
ATOM     55  H           0     128.919 131.408 136.887  0.00  0.00     0.174 HD
ATOM     56  C           0     129.548 130.798 131.330  0.00  0.00     0.093 C 
ATOM     57  H           0     128.991 130.459 134.525  0.00  0.00     0.180 HD
BRANCH  48  58
ATOM     58  O           0     129.071 132.649 132.857  0.00  0.00    -0.362 OA
ATOM     59  H           0     128.529 132.066 133.404  0.00  0.00     0.213 HD
ENDBRANCH  48  58
BRANCH  48  60
ATOM     60  O           0     131.088 132.671 131.657  0.00  0.00    -0.362 OA
ATOM     61  H           0     131.219 132.299 130.774  0.00  0.00     0.213 HD
ENDBRANCH  48  60
ENDBRANCH  36  37
ENDBRANCH  35  36
ENDBRANCH   1  35
TORSDOF 18
ENDMDL
MODEL 4
REMARK VINA RESULT:      -8.2      2.541     13.069
REMARK  18 active torsions:
REMARK  status: ('A' for Active; 'I' for Inactive)
REMARK    1  A    between atoms: C_6  and  C_7 
REMARK    2  A    between atoms: C_7  and  O_8 
REMARK    3  A    between atoms: O_8  and  C_9 
REMARK       I    between atoms: C_9  and  N_10 
REMARK    4  A    between atoms: N_10  and  C_11 
REMARK    5  A    between atoms: C_11  and  C_12 
REMARK    6  A    between atoms: C_12  and  N_13 
REMARK       I    between atoms: N_13  and  C_14 
REMARK    7  A    between atoms: C_14  and  C_15 
REMARK    8  A    between atoms: C_15  and  C_16 
REMARK    9  A    between atoms: C_16  and  N_17 
REMARK   10  A    between atoms: C_20  and  C_21 
REMARK   11  A    between atoms: C_21  and  C_22 
REMARK   12  A    between atoms: C_22  and  C_23 
REMARK   13  A    between atoms: N_25  and  C_26 
REMARK   14  A    between atoms: C_26  and  C_27 
REMARK   15  A    between atoms: C_27  and  C_28 
REMARK   16  A    between atoms: C_28  and  N_29 
REMARK       I    between atoms: N_29  and  C_30 
REMARK   17  A    between atoms: C_51  and  O_52 
REMARK   18  A    between atoms: C_51  and  O_53 
ROOT
ATOM      1  C           0     133.933 135.741 135.537  0.00  0.00     0.360 C 
ATOM      2  N           0     133.313 135.489 136.707  0.00  0.00    -0.335 N 
ATOM      3  O           0     135.143 135.663 135.462  0.00  0.00    -0.239 OA
ATOM      4  H           0     132.348 135.551 136.767  0.00  0.00     0.164 HD
ENDROOT
BRANCH   2   5
ATOM      5  C           0     134.099 135.122 137.888  0.00  0.00     0.144 C 
BRANCH   5   6
ATOM      6  C           0     133.254 135.329 139.147  0.00  0.00     0.142 C 
BRANCH   6   7
ATOM      7  N           0     133.731 134.438 140.207  0.00  0.00    -0.359 N 
ATOM      8  C           0     132.897 133.528 140.749  0.00  0.00     0.219 C 
ATOM      9  O           0     131.752 133.447 140.358  0.00  0.00    -0.274 OA
ATOM     10  H           0     134.648 134.503 140.520  0.00  0.00     0.162 HD
BRANCH   8  11
ATOM     11  C           0     133.388 132.612 141.840  0.00  0.00     0.123 C 
BRANCH  11  12
ATOM     12  C           0     134.906 132.750 141.977  0.00  0.00     0.145 C 
BRANCH  12  13
ATOM     13  N           0     135.231 133.259 143.312  0.00  0.00    -0.281 N 
ATOM     14  C           0     135.603 132.503 144.360  0.00  0.00     0.256 A 
ATOM     15  C           0     135.842 133.395 145.517  0.00  0.00     0.016 A 
ATOM     16  O           0     135.730 131.296 144.357  0.00  0.00    -0.267 OA
ATOM     17  C           0     135.589 134.647 145.101  0.00  0.00     0.087 A 
ATOM     18  C           0     135.196 134.553 143.678  0.00  0.00     0.251 A 
ATOM     19  O           0     134.893 135.485 142.962  0.00  0.00    -0.268 OA
BRANCH  15  20
ATOM     20  C           0     136.278 132.978 146.898  0.00  0.00     0.051 C 
BRANCH  20  21
ATOM     21  C           0     137.639 132.286 146.818  0.00  0.00     0.067 C 
BRANCH  21  22
ATOM     22  C           0     137.562 130.943 147.497  0.00  0.00     0.076 A 
ATOM     23  N           0     138.559 130.063 147.645  0.00  0.00    -0.135 NA
ATOM     24  N           0     138.115 129.035 148.278  0.00  0.00    -0.066 NA
ATOM     25  N           0     136.866 129.185 148.549  0.00  0.00    -0.261 N 
ATOM     26  C           0     136.470 130.387 148.070  0.00  0.00     0.142 A 
BRANCH  25  27
ATOM     27  C           0     136.018 128.220 149.255  0.00  0.00     0.154 C 
BRANCH  27  28
ATOM     28  C           0     135.354 128.904 150.451  0.00  0.00     0.041 C 
BRANCH  28  29
ATOM     29  C           0     133.889 129.195 150.123  0.00  0.00     0.124 C 
BRANCH  29  30
ATOM     30  N           0     133.519 128.506 148.885  0.00  0.00    -0.361 N 
ATOM     31  C           0     132.242 128.128 148.678  0.00  0.00     0.213 C 
ATOM     32  C           0     131.862 127.420 147.403  0.00  0.00     0.117 C 
ATOM     33  O           0     131.399 128.359 149.517  0.00  0.00    -0.274 OA
ATOM     34  H           0     134.194 128.321 148.213  0.00  0.00     0.162 HD
ENDBRANCH  29  30
ENDBRANCH  28  29
ENDBRANCH  27  28
ENDBRANCH  25  27
ENDBRANCH  21  22
ENDBRANCH  20  21
ENDBRANCH  15  20
ENDBRANCH  12  13
ENDBRANCH  11  12
ENDBRANCH   8  11
ENDBRANCH   6   7
ENDBRANCH   5   6
ENDBRANCH   2   5
BRANCH   1  35
ATOM     35  O           0     133.212 136.078 134.452  0.00  0.00    -0.302 OA
BRANCH  35  36
ATOM     36  C           0     132.655 135.043 133.599  0.00  0.00     0.208 C 
BRANCH  36  37
ATOM     37  C           0     131.128 135.137 133.614  0.00  0.00     0.151 C 
ATOM     38  N           0     130.644 134.735 134.932  0.00  0.00    -0.218 N 
ATOM     39  C           0     130.756 133.404 135.294  0.00  0.00     0.672 C 
ATOM     40  H           0     130.253 135.383 135.538  0.00  0.00     0.178 HD
ATOM     41  N           0     130.876 133.030 136.537  0.00  0.00    -0.235 N 
ATOM     42  N           0     130.738 132.504 134.260  0.00  0.00    -0.183 N 
ATOM     43  H           0     130.890 133.695 137.244  0.00  0.00     0.174 HD
ATOM     44  H           0     130.950 132.088 136.756  0.00  0.00     0.174 HD
ATOM     45  C           0     130.473 132.795 132.850  0.00  0.00     0.217 C 
ATOM     46  C           0     131.036 131.061 134.311  0.00  0.00     0.150 C 
ATOM     47  C           0     130.575 134.271 132.499  0.00  0.00     0.180 C 
ATOM     48  C           0     131.483 131.945 132.061  0.00  0.00     0.209 C 
ATOM     49  N           0     129.100 132.412 132.483  0.00  0.00    -0.191 N 
ATOM     50  N           0     129.178 134.668 132.223  0.00  0.00    -0.216 N 
ATOM     51  C           0     128.460 133.520 131.987  0.00  0.00     0.670 C 
ATOM     52  H           0     128.831 135.573 132.211  0.00  0.00     0.178 HD
ATOM     53  N           0     127.314 133.489 131.369  0.00  0.00    -0.235 N 
ATOM     54  H           0     126.915 134.311 131.042  0.00  0.00     0.174 HD
ATOM     55  H           0     126.859 132.643 131.234  0.00  0.00     0.174 HD
ATOM     56  C           0     131.860 130.795 133.028  0.00  0.00     0.093 C 
ATOM     57  H           0     128.715 131.526 132.573  0.00  0.00     0.180 HD
BRANCH  48  58
ATOM     58  O           0     130.882 131.422 130.875  0.00  0.00    -0.362 OA
ATOM     59  H           0     131.021 130.465 130.889  0.00  0.00     0.213 HD
ENDBRANCH  48  58
BRANCH  48  60
ATOM     60  O           0     132.637 132.721 131.735  0.00  0.00    -0.362 OA
ATOM     61  H           0     133.306 132.103 131.406  0.00  0.00     0.213 HD
ENDBRANCH  48  60
ENDBRANCH  36  37
ENDBRANCH  35  36
ENDBRANCH   1  35
TORSDOF 18
ENDMDL
MODEL 5
REMARK VINA RESULT:      -8.2      2.740     12.883
REMARK  18 active torsions:
REMARK  status: ('A' for Active; 'I' for Inactive)
REMARK    1  A    between atoms: C_6  and  C_7 
REMARK    2  A    between atoms: C_7  and  O_8 
REMARK    3  A    between atoms: O_8  and  C_9 
REMARK       I    between atoms: C_9  and  N_10 
REMARK    4  A    between atoms: N_10  and  C_11 
REMARK    5  A    between atoms: C_11  and  C_12 
REMARK    6  A    between atoms: C_12  and  N_13 
REMARK       I    between atoms: N_13  and  C_14 
REMARK    7  A    between atoms: C_14  and  C_15 
REMARK    8  A    between atoms: C_15  and  C_16 
REMARK    9  A    between atoms: C_16  and  N_17 
REMARK   10  A    between atoms: C_20  and  C_21 
REMARK   11  A    between atoms: C_21  and  C_22 
REMARK   12  A    between atoms: C_22  and  C_23 
REMARK   13  A    between atoms: N_25  and  C_26 
REMARK   14  A    between atoms: C_26  and  C_27 
REMARK   15  A    between atoms: C_27  and  C_28 
REMARK   16  A    between atoms: C_28  and  N_29 
REMARK       I    between atoms: N_29  and  C_30 
REMARK   17  A    between atoms: C_51  and  O_52 
REMARK   18  A    between atoms: C_51  and  O_53 
ROOT
ATOM      1  C           0     134.297 133.634 132.779  0.00  0.00     0.360 C 
ATOM      2  N           0     134.551 134.068 134.031  0.00  0.00    -0.335 N 
ATOM      3  O           0     133.696 134.348 132.001  0.00  0.00    -0.239 OA
ATOM      4  H           0     135.030 133.498 134.652  0.00  0.00     0.164 HD
ENDROOT
BRANCH   2   5
ATOM      5  C           0     134.103 135.399 134.450  0.00  0.00     0.144 C 
BRANCH   5   6
ATOM      6  C           0     132.952 135.257 135.448  0.00  0.00     0.142 C 
BRANCH   6   7
ATOM      7  N           0     133.457 135.463 136.807  0.00  0.00    -0.359 N 
ATOM      8  C           0     132.976 134.721 137.825  0.00  0.00     0.219 C 
ATOM      9  O           0     132.125 133.882 137.614  0.00  0.00    -0.274 OA
ATOM     10  H           0     134.138 136.134 136.976  0.00  0.00     0.162 HD
BRANCH   8  11
ATOM     11  C           0     133.495 134.933 139.223  0.00  0.00     0.123 C 
BRANCH  11  12
ATOM     12  C           0     132.614 134.170 140.216  0.00  0.00     0.145 C 
BRANCH  12  13
ATOM     13  N           0     133.393 133.855 141.417  0.00  0.00    -0.281 N 
ATOM     14  C           0     134.002 134.757 142.205  0.00  0.00     0.256 A 
ATOM     15  C           0     134.674 134.036 143.308  0.00  0.00     0.016 A 
ATOM     16  O           0     133.995 135.961 142.044  0.00  0.00    -0.267 OA
ATOM     17  C           0     134.439 132.727 143.116  0.00  0.00     0.087 A 
ATOM     18  C           0     133.612 132.617 141.895  0.00  0.00     0.251 A 
ATOM     19  O           0     133.200 131.584 141.406  0.00  0.00    -0.268 OA
BRANCH  15  20
ATOM     20  C           0     135.476 134.650 144.427  0.00  0.00     0.051 C 
BRANCH  20  21
ATOM     21  C           0     136.967 134.426 144.171  0.00  0.00     0.067 C 
BRANCH  21  22
ATOM     22  C           0     137.398 133.131 144.810  0.00  0.00     0.076 A 
ATOM     23  N           0     138.198 132.202 144.274  0.00  0.00    -0.135 NA
ATOM     24  N           0     138.341 131.241 145.117  0.00  0.00    -0.066 NA
ATOM     25  N           0     137.666 131.483 146.186  0.00  0.00    -0.261 N 
ATOM     26  C           0     137.048 132.677 146.036  0.00  0.00     0.142 A 
BRANCH  25  27
ATOM     27  C           0     137.580 130.614 147.362  0.00  0.00     0.154 C 
BRANCH  27  28
ATOM     28  C           0     136.111 130.386 147.723  0.00  0.00     0.041 C 
BRANCH  28  29
ATOM     29  C           0     135.603 129.126 147.021  0.00  0.00     0.124 C 
BRANCH  29  30
ATOM     30  N           0     134.158 129.000 147.226  0.00  0.00    -0.361 N 
ATOM     31  C           0     133.684 128.353 148.308  0.00  0.00     0.213 C 
ATOM     32  C           0     132.197 128.225 148.519  0.00  0.00     0.117 C 
ATOM     33  O           0     134.453 127.874 149.113  0.00  0.00    -0.274 OA
ATOM     34  H           0     133.542 129.384 146.582  0.00  0.00     0.162 HD
ENDBRANCH  29  30
ENDBRANCH  28  29
ENDBRANCH  27  28
ENDBRANCH  25  27
ENDBRANCH  21  22
ENDBRANCH  20  21
ENDBRANCH  15  20
ENDBRANCH  12  13
ENDBRANCH  11  12
ENDBRANCH   8  11
ENDBRANCH   6   7
ENDBRANCH   5   6
ENDBRANCH   2   5
BRANCH   1  35
ATOM     35  O           0     134.707 132.412 132.394  0.00  0.00    -0.302 OA
BRANCH  35  36
ATOM     36  C           0     133.752 131.323 132.293  0.00  0.00     0.208 C 
BRANCH  36  37
ATOM     37  C           0     133.314 130.897 133.695  0.00  0.00     0.151 C 
ATOM     38  N           0     133.162 129.445 133.721  0.00  0.00    -0.218 N 
ATOM     39  C           0     132.113 128.883 133.016  0.00  0.00     0.672 C 
ATOM     40  H           0     133.779 128.889 134.221  0.00  0.00     0.178 HD
ATOM     41  N           0     132.173 127.677 132.525  0.00  0.00    -0.235 N 
ATOM     42  N           0     131.007 129.680 132.860  0.00  0.00    -0.183 N 
ATOM     43  H           0     132.973 127.142 132.650  0.00  0.00     0.174 HD
ATOM     44  H           0     131.417 127.312 132.038  0.00  0.00     0.174 HD
ATOM     45  C           0     130.776 130.987 133.477  0.00  0.00     0.217 C 
ATOM     46  C           0     129.834 129.441 132.000  0.00  0.00     0.150 C 
ATOM     47  C           0     132.032 131.626 134.048  0.00  0.00     0.180 C 
ATOM     48  C           0     130.140 131.851 132.376  0.00  0.00     0.209 C 
ATOM     49  N           0     129.855 130.873 134.620  0.00  0.00    -0.191 N 
ATOM     50  N           0     131.826 131.569 135.511  0.00  0.00    -0.216 N 
ATOM     51  C           0     130.485 131.370 135.734  0.00  0.00     0.670 C 
ATOM     52  H           0     132.514 131.654 136.190  0.00  0.00     0.178 HD
ATOM     53  N           0     129.886 131.624 136.862  0.00  0.00    -0.235 N 
ATOM     54  H           0     130.391 131.975 137.612  0.00  0.00     0.174 HD
ATOM     55  H           0     128.934 131.461 136.953  0.00  0.00     0.174 HD
ATOM     56  C           0     129.516 130.828 131.393  0.00  0.00     0.093 C 
ATOM     57  H           0     128.956 130.512 134.591  0.00  0.00     0.180 HD
BRANCH  48  58
ATOM     58  O           0     129.127 132.698 132.923  0.00  0.00    -0.362 OA
ATOM     59  H           0     129.572 133.322 133.512  0.00  0.00     0.213 HD
ENDBRANCH  48  58
BRANCH  48  60
ATOM     60  O           0     131.139 132.630 131.716  0.00  0.00    -0.362 OA
ATOM     61  H           0     131.259 132.246 130.837  0.00  0.00     0.213 HD
ENDBRANCH  48  60
ENDBRANCH  36  37
ENDBRANCH  35  36
ENDBRANCH   1  35
TORSDOF 18
ENDMDL
MODEL 6
REMARK VINA RESULT:      -8.1      4.270      9.768
REMARK  18 active torsions:
REMARK  status: ('A' for Active; 'I' for Inactive)
REMARK    1  A    between atoms: C_6  and  C_7 
REMARK    2  A    between atoms: C_7  and  O_8 
REMARK    3  A    between atoms: O_8  and  C_9 
REMARK       I    between atoms: C_9  and  N_10 
REMARK    4  A    between atoms: N_10  and  C_11 
REMARK    5  A    between atoms: C_11  and  C_12 
REMARK    6  A    between atoms: C_12  and  N_13 
REMARK       I    between atoms: N_13  and  C_14 
REMARK    7  A    between atoms: C_14  and  C_15 
REMARK    8  A    between atoms: C_15  and  C_16 
REMARK    9  A    between atoms: C_16  and  N_17 
REMARK   10  A    between atoms: C_20  and  C_21 
REMARK   11  A    between atoms: C_21  and  C_22 
REMARK   12  A    between atoms: C_22  and  C_23 
REMARK   13  A    between atoms: N_25  and  C_26 
REMARK   14  A    between atoms: C_26  and  C_27 
REMARK   15  A    between atoms: C_27  and  C_28 
REMARK   16  A    between atoms: C_28  and  N_29 
REMARK       I    between atoms: N_29  and  C_30 
REMARK   17  A    between atoms: C_51  and  O_52 
REMARK   18  A    between atoms: C_51  and  O_53 
ROOT
ATOM      1  C           0     133.779 134.625 138.850  0.00  0.00     0.360 C 
ATOM      2  N           0     132.820 135.108 138.036  0.00  0.00    -0.335 N 
ATOM      3  O           0     134.874 134.350 138.402  0.00  0.00    -0.239 OA
ATOM      4  H           0     131.946 135.328 138.394  0.00  0.00     0.164 HD
ENDROOT
BRANCH   2   5
ATOM      5  C           0     133.098 135.301 136.610  0.00  0.00     0.144 C 
BRANCH   5   6
ATOM      6  C           0     131.918 136.020 135.954  0.00  0.00     0.142 C 
BRANCH   6   7
ATOM      7  N           0     131.006 135.031 135.372  0.00  0.00    -0.359 N 
ATOM      8  C           0     131.487 133.858 134.914  0.00  0.00     0.219 C 
ATOM      9  O           0     132.674 133.621 134.984  0.00  0.00    -0.274 OA
ATOM     10  H           0     130.056 135.221 135.315  0.00  0.00     0.162 HD
BRANCH   8  11
ATOM     11  C           0     130.549 132.842 134.315  0.00  0.00     0.123 C 
BRANCH  11  12
ATOM     12  C           0     130.522 133.007 132.794  0.00  0.00     0.145 C 
BRANCH  12  13
ATOM     13  N           0     129.940 131.809 132.183  0.00  0.00    -0.281 N 
ATOM     14  C           0     130.562 130.623 132.057  0.00  0.00     0.256 A 
ATOM     15  C           0     129.636 129.679 131.393  0.00  0.00     0.016 A 
ATOM     16  O           0     131.688 130.368 132.431  0.00  0.00    -0.267 OA
ATOM     17  C           0     128.502 130.356 131.145  0.00  0.00     0.087 A 
ATOM     18  C           0     128.705 131.729 131.657  0.00  0.00     0.251 A 
ATOM     19  O           0     127.893 132.632 131.611  0.00  0.00    -0.268 OA
BRANCH  15  20
ATOM     20  C           0     129.913 128.237 131.052  0.00  0.00     0.051 C 
BRANCH  20  21
ATOM     21  C           0     129.935 127.405 132.335  0.00  0.00     0.067 C 
BRANCH  21  22
ATOM     22  C           0     131.267 126.709 132.460  0.00  0.00     0.076 A 
ATOM     23  N           0     131.510 125.555 133.092  0.00  0.00    -0.135 NA
ATOM     24  N           0     132.761 125.277 132.983  0.00  0.00    -0.066 NA
ATOM     25  N           0     133.365 126.198 132.316  0.00  0.00    -0.261 N 
ATOM     26  C           0     132.452 127.132 131.963  0.00  0.00     0.142 A 
BRANCH  25  27
ATOM     27  C           0     134.794 126.230 131.996  0.00  0.00     0.154 C 
BRANCH  27  28
ATOM     28  C           0     135.071 127.368 131.012  0.00  0.00     0.041 C 
BRANCH  28  29
ATOM     29  C           0     136.225 128.225 131.535  0.00  0.00     0.124 C 
BRANCH  29  30
ATOM     30  N           0     135.815 129.631 131.568  0.00  0.00    -0.361 N 
ATOM     31  C           0     135.260 130.145 132.683  0.00  0.00     0.213 C 
ATOM     32  C           0     134.839 131.591 132.717  0.00  0.00     0.117 C 
ATOM     33  O           0     135.100 129.444 133.659  0.00  0.00    -0.274 OA
ATOM     34  H           0     135.944 130.192 130.787  0.00  0.00     0.162 HD
ENDBRANCH  29  30
ENDBRANCH  28  29
ENDBRANCH  27  28
ENDBRANCH  25  27
ENDBRANCH  21  22
ENDBRANCH  20  21
ENDBRANCH  15  20
ENDBRANCH  12  13
ENDBRANCH  11  12
ENDBRANCH   8  11
ENDBRANCH   6   7
ENDBRANCH   5   6
ENDBRANCH   2   5
BRANCH   1  35
ATOM     35  O           0     133.525 134.448 140.160  0.00  0.00    -0.302 OA
BRANCH  35  36
ATOM     36  C           0     134.324 133.518 140.937  0.00  0.00     0.208 C 
BRANCH  36  37
ATOM     37  C           0     133.783 133.449 142.366  0.00  0.00     0.151 C 
ATOM     38  N           0     133.645 134.806 142.884  0.00  0.00    -0.218 N 
ATOM     39  C           0     134.796 135.526 143.152  0.00  0.00     0.672 C 
ATOM     40  H           0     132.770 135.194 143.038  0.00  0.00     0.178 HD
ATOM     41  N           0     134.833 136.828 143.088  0.00  0.00    -0.235 N 
ATOM     42  N           0     135.899 134.781 143.482  0.00  0.00    -0.183 N 
ATOM     43  H           0     134.035 137.324 142.846  0.00  0.00     0.174 HD
ATOM     44  H           0     135.657 137.301 143.286  0.00  0.00     0.174 HD
ATOM     45  C           0     135.941 133.336 143.716  0.00  0.00     0.217 C 
ATOM     46  C           0     137.293 135.240 143.621  0.00  0.00     0.150 C 
ATOM     47  C           0     134.718 132.596 143.201  0.00  0.00     0.180 C 
ATOM     48  C           0     137.235 132.852 143.040  0.00  0.00     0.209 C 
ATOM     49  N           0     135.987 133.038 145.157  0.00  0.00    -0.191 N 
ATOM     50  N           0     134.017 132.168 144.430  0.00  0.00    -0.216 N 
ATOM     51  C           0     134.920 132.231 145.465  0.00  0.00     0.670 C 
ATOM     52  H           0     133.089 131.894 144.496  0.00  0.00     0.178 HD
ATOM     53  N           0     134.779 131.602 146.597  0.00  0.00    -0.235 N 
ATOM     54  H           0     133.999 131.047 146.751  0.00  0.00     0.174 HD
ATOM     55  H           0     135.456 131.690 147.287  0.00  0.00     0.174 HD
ATOM     56  C           0     138.133 134.113 142.973  0.00  0.00     0.093 C 
ATOM     57  H           0     136.658 133.354 145.781  0.00  0.00     0.180 HD
BRANCH  48  58
ATOM     58  O           0     137.861 131.835 143.824  0.00  0.00    -0.362 OA
ATOM     59  H           0     138.703 132.197 144.132  0.00  0.00     0.213 HD
ENDBRANCH  48  58
BRANCH  48  60
ATOM     60  O           0     136.956 132.368 141.725  0.00  0.00    -0.362 OA
ATOM     61  H           0     137.692 132.647 141.162  0.00  0.00     0.213 HD
ENDBRANCH  48  60
ENDBRANCH  36  37
ENDBRANCH  35  36
ENDBRANCH   1  35
TORSDOF 18
ENDMDL
MODEL 7
REMARK VINA RESULT:      -8.0      2.632     13.045
REMARK  18 active torsions:
REMARK  status: ('A' for Active; 'I' for Inactive)
REMARK    1  A    between atoms: C_6  and  C_7 
REMARK    2  A    between atoms: C_7  and  O_8 
REMARK    3  A    between atoms: O_8  and  C_9 
REMARK       I    between atoms: C_9  and  N_10 
REMARK    4  A    between atoms: N_10  and  C_11 
REMARK    5  A    between atoms: C_11  and  C_12 
REMARK    6  A    between atoms: C_12  and  N_13 
REMARK       I    between atoms: N_13  and  C_14 
REMARK    7  A    between atoms: C_14  and  C_15 
REMARK    8  A    between atoms: C_15  and  C_16 
REMARK    9  A    between atoms: C_16  and  N_17 
REMARK   10  A    between atoms: C_20  and  C_21 
REMARK   11  A    between atoms: C_21  and  C_22 
REMARK   12  A    between atoms: C_22  and  C_23 
REMARK   13  A    between atoms: N_25  and  C_26 
REMARK   14  A    between atoms: C_26  and  C_27 
REMARK   15  A    between atoms: C_27  and  C_28 
REMARK   16  A    between atoms: C_28  and  N_29 
REMARK       I    between atoms: N_29  and  C_30 
REMARK   17  A    between atoms: C_51  and  O_52 
REMARK   18  A    between atoms: C_51  and  O_53 
ROOT
ATOM      1  C           0     133.921 135.031 137.073  0.00  0.00     0.360 C 
ATOM      2  N           0     132.938 135.322 137.948  0.00  0.00    -0.335 N 
ATOM      3  O           0     135.068 134.931 137.460  0.00  0.00    -0.239 OA
ATOM      4  H           0     132.022 135.403 137.639  0.00  0.00     0.164 HD
ENDROOT
BRANCH   2   5
ATOM      5  C           0     133.253 135.517 139.366  0.00  0.00     0.144 C 
BRANCH   5   6
ATOM      6  C           0     133.137 134.181 140.102  0.00  0.00     0.142 C 
BRANCH   6   7
ATOM      7  N           0     134.470 133.728 140.505  0.00  0.00    -0.359 N 
ATOM      8  C           0     134.649 133.142 141.706  0.00  0.00     0.219 C 
ATOM      9  O           0     133.705 132.992 142.453  0.00  0.00    -0.274 OA
ATOM     10  H           0     135.225 133.848 139.907  0.00  0.00     0.162 HD
BRANCH   8  11
ATOM     11  C           0     136.020 132.676 142.120  0.00  0.00     0.123 C 
BRANCH  11  12
ATOM     12  C           0     136.808 133.855 142.697  0.00  0.00     0.145 C 
BRANCH  12  13
ATOM     13  N           0     137.194 133.555 144.078  0.00  0.00    -0.281 N 
ATOM     14  C           0     138.384 133.061 144.461  0.00  0.00     0.256 A 
ATOM     15  C           0     138.374 132.905 145.932  0.00  0.00     0.016 A 
ATOM     16  O           0     139.313 132.796 143.725  0.00  0.00    -0.267 OA
ATOM     17  C           0     137.165 133.307 146.357  0.00  0.00     0.087 A 
ATOM     18  C           0     136.408 133.725 145.157  0.00  0.00     0.251 A 
ATOM     19  O           0     135.271 134.151 145.147  0.00  0.00    -0.268 OA
BRANCH  15  20
ATOM     20  C           0     139.501 132.386 146.789  0.00  0.00     0.051 C 
BRANCH  20  21
ATOM     21  C           0     139.707 130.896 146.514  0.00  0.00     0.067 C 
BRANCH  21  22
ATOM     22  C           0     138.971 130.087 147.551  0.00  0.00     0.076 A 
ATOM     23  N           0     139.508 129.447 148.596  0.00  0.00    -0.135 NA
ATOM     24  N           0     138.569 128.870 149.258  0.00  0.00    -0.066 NA
ATOM     25  N           0     137.430 129.088 148.696  0.00  0.00    -0.261 N 
ATOM     26  C           0     137.638 129.859 147.604  0.00  0.00     0.142 A 
BRANCH  25  27
ATOM     27  C           0     136.134 128.586 149.160  0.00  0.00     0.154 C 
BRANCH  27  28
ATOM     28  C           0     135.161 128.524 147.981  0.00  0.00     0.041 C 
BRANCH  28  29
ATOM     29  C           0     133.781 128.094 148.482  0.00  0.00     0.124 C 
BRANCH  29  30
ATOM     30  N           0     132.963 129.281 148.741  0.00  0.00    -0.361 N 
ATOM     31  C           0     131.762 129.155 149.338  0.00  0.00     0.213 C 
ATOM     32  C           0     130.921 130.377 149.605  0.00  0.00     0.117 C 
ATOM     33  O           0     131.358 128.059 149.663  0.00  0.00    -0.274 OA
ATOM     34  H           0     133.286 130.158 148.481  0.00  0.00     0.162 HD
ENDBRANCH  29  30
ENDBRANCH  28  29
ENDBRANCH  27  28
ENDBRANCH  25  27
ENDBRANCH  21  22
ENDBRANCH  20  21
ENDBRANCH  15  20
ENDBRANCH  12  13
ENDBRANCH  11  12
ENDBRANCH   8  11
ENDBRANCH   6   7
ENDBRANCH   5   6
ENDBRANCH   2   5
BRANCH   1  35
ATOM     35  O           0     133.632 134.852 135.771  0.00  0.00    -0.302 OA
BRANCH  35  36
ATOM     36  C           0     132.270 134.552 135.363  0.00  0.00     0.208 C 
BRANCH  36  37
ATOM     37  C           0     132.156 133.065 135.021  0.00  0.00     0.151 C 
ATOM     38  N           0     133.181 132.728 134.038  0.00  0.00    -0.218 N 
ATOM     39  C           0     133.049 133.228 132.755  0.00  0.00     0.672 C 
ATOM     40  H           0     133.934 132.166 134.277  0.00  0.00     0.178 HD
ATOM     41  N           0     134.079 133.460 131.990  0.00  0.00    -0.235 N 
ATOM     42  N           0     131.764 133.471 132.341  0.00  0.00    -0.183 N 
ATOM     43  H           0     134.975 133.281 132.316  0.00  0.00     0.174 HD
ATOM     44  H           0     133.950 133.808 131.094  0.00  0.00     0.174 HD
ATOM     45  C           0     130.534 133.125 133.056  0.00  0.00     0.217 C 
ATOM     46  C           0     131.323 134.181 131.127  0.00  0.00     0.150 C 
ATOM     47  C           0     130.752 132.787 134.522  0.00  0.00     0.180 C 
ATOM     48  C           0     129.604 134.337 132.877  0.00  0.00     0.209 C 
ATOM     49  N           0     129.910 131.924 132.478  0.00  0.00    -0.191 N 
ATOM     50  N           0     130.490 131.333 134.594  0.00  0.00    -0.216 N 
ATOM     51  C           0     129.782 130.984 133.469  0.00  0.00     0.670 C 
ATOM     52  H           0     130.769 130.735 135.304  0.00  0.00     0.178 HD
ATOM     53  N           0     129.076 129.895 133.359  0.00  0.00    -0.235 N 
ATOM     54  H           0     129.027 129.270 134.100  0.00  0.00     0.174 HD
ATOM     55  H           0     128.598 129.708 132.536  0.00  0.00     0.174 HD
ATOM     56  C           0     130.126 135.040 131.599  0.00  0.00     0.093 C 
ATOM     57  H           0     129.633 131.817 131.554  0.00  0.00     0.180 HD
BRANCH  48  58
ATOM     58  O           0     128.252 133.910 132.694  0.00  0.00    -0.362 OA
ATOM     59  H           0     128.278 133.146 132.103  0.00  0.00     0.213 HD
ENDBRANCH  48  58
BRANCH  48  60
ATOM     60  O           0     129.703 135.210 134.003  0.00  0.00    -0.362 OA
ATOM     61  H           0     130.528 134.987 134.458  0.00  0.00     0.213 HD
ENDBRANCH  48  60
ENDBRANCH  36  37
ENDBRANCH  35  36
ENDBRANCH   1  35
TORSDOF 18
ENDMDL
MODEL 8
REMARK VINA RESULT:      -8.0      2.221     12.990
REMARK  18 active torsions:
REMARK  status: ('A' for Active; 'I' for Inactive)
REMARK    1  A    between atoms: C_6  and  C_7 
REMARK    2  A    between atoms: C_7  and  O_8 
REMARK    3  A    between atoms: O_8  and  C_9 
REMARK       I    between atoms: C_9  and  N_10 
REMARK    4  A    between atoms: N_10  and  C_11 
REMARK    5  A    between atoms: C_11  and  C_12 
REMARK    6  A    between atoms: C_12  and  N_13 
REMARK       I    between atoms: N_13  and  C_14 
REMARK    7  A    between atoms: C_14  and  C_15 
REMARK    8  A    between atoms: C_15  and  C_16 
REMARK    9  A    between atoms: C_16  and  N_17 
REMARK   10  A    between atoms: C_20  and  C_21 
REMARK   11  A    between atoms: C_21  and  C_22 
REMARK   12  A    between atoms: C_22  and  C_23 
REMARK   13  A    between atoms: N_25  and  C_26 
REMARK   14  A    between atoms: C_26  and  C_27 
REMARK   15  A    between atoms: C_27  and  C_28 
REMARK   16  A    between atoms: C_28  and  N_29 
REMARK       I    between atoms: N_29  and  C_30 
REMARK   17  A    between atoms: C_51  and  O_52 
REMARK   18  A    between atoms: C_51  and  O_53 
ROOT
ATOM      1  C           0     133.990 135.776 135.512  0.00  0.00     0.360 C 
ATOM      2  N           0     133.348 135.504 136.667  0.00  0.00    -0.335 N 
ATOM      3  O           0     135.204 135.767 135.476  0.00  0.00    -0.239 OA
ATOM      4  H           0     132.379 135.511 136.695  0.00  0.00     0.164 HD
ENDROOT
BRANCH   2   5
ATOM      5  C           0     134.116 135.197 137.876  0.00  0.00     0.144 C 
BRANCH   5   6
ATOM      6  C           0     133.182 135.203 139.087  0.00  0.00     0.142 C 
BRANCH   6   7
ATOM      7  N           0     133.815 134.484 140.196  0.00  0.00    -0.359 N 
ATOM      8  C           0     133.110 133.577 140.902  0.00  0.00     0.219 C 
ATOM      9  O           0     131.951 133.357 140.619  0.00  0.00    -0.274 OA
ATOM     10  H           0     134.742 134.661 140.423  0.00  0.00     0.162 HD
BRANCH   8  11
ATOM     11  C           0     133.761 132.839 142.042  0.00  0.00     0.123 C 
BRANCH  11  12
ATOM     12  C           0     135.282 132.970 141.932  0.00  0.00     0.145 C 
BRANCH  12  13
ATOM     13  N           0     135.842 133.274 143.251  0.00  0.00    -0.281 N 
ATOM     14  C           0     136.629 132.453 143.968  0.00  0.00     0.256 A 
ATOM     15  C           0     136.982 133.131 145.235  0.00  0.00     0.016 A 
ATOM     16  O           0     136.995 131.345 143.630  0.00  0.00    -0.267 OA
ATOM     17  C           0     136.375 134.330 145.215  0.00  0.00     0.087 A 
ATOM     18  C           0     135.642 134.416 143.934  0.00  0.00     0.251 A 
ATOM     19  O           0     134.973 135.358 143.560  0.00  0.00    -0.268 OA
BRANCH  15  20
ATOM     20  C           0     137.848 132.581 146.338  0.00  0.00     0.051 C 
BRANCH  20  21
ATOM     21  C           0     137.530 133.305 147.647  0.00  0.00     0.067 C 
BRANCH  21  22
ATOM     22  C           0     136.417 132.583 148.363  0.00  0.00     0.076 A 
ATOM     23  N           0     135.105 132.809 148.236  0.00  0.00    -0.135 NA
ATOM     24  N           0     134.466 131.996 149.002  0.00  0.00    -0.066 NA
ATOM     25  N           0     135.294 131.245 149.641  0.00  0.00    -0.261 N 
ATOM     26  C           0     136.549 131.584 149.267  0.00  0.00     0.142 A 
BRANCH  25  27
ATOM     27  C           0     134.938 130.205 150.609  0.00  0.00     0.154 C 
BRANCH  27  28
ATOM     28  C           0     135.876 129.008 150.439  0.00  0.00     0.041 C 
BRANCH  28  29
ATOM     29  C           0     135.267 128.020 149.442  0.00  0.00     0.124 C 
BRANCH  29  30
ATOM     30  N           0     134.754 128.751 148.282  0.00  0.00    -0.361 N 
ATOM     31  C           0     135.559 128.997 147.229  0.00  0.00     0.213 C 
ATOM     32  C           0     135.030 129.748 146.035  0.00  0.00     0.117 C 
ATOM     33  O           0     136.708 128.612 147.243  0.00  0.00    -0.274 OA
ATOM     34  H           0     133.834 129.059 148.270  0.00  0.00     0.162 HD
ENDBRANCH  29  30
ENDBRANCH  28  29
ENDBRANCH  27  28
ENDBRANCH  25  27
ENDBRANCH  21  22
ENDBRANCH  20  21
ENDBRANCH  15  20
ENDBRANCH  12  13
ENDBRANCH  11  12
ENDBRANCH   8  11
ENDBRANCH   6   7
ENDBRANCH   5   6
ENDBRANCH   2   5
BRANCH   1  35
ATOM     35  O           0     133.285 136.058 134.401  0.00  0.00    -0.302 OA
BRANCH  35  36
ATOM     36  C           0     132.713 134.982 133.611  0.00  0.00     0.208 C 
BRANCH  36  37
ATOM     37  C           0     131.188 135.096 133.621  0.00  0.00     0.151 C 
ATOM     38  N           0     130.695 134.719 134.942  0.00  0.00    -0.218 N 
ATOM     39  C           0     130.789 133.392 135.323  0.00  0.00     0.672 C 
ATOM     40  H           0     130.312 135.381 135.538  0.00  0.00     0.178 HD
ATOM     41  N           0     130.901 133.034 136.571  0.00  0.00    -0.235 N 
ATOM     42  N           0     130.761 132.478 134.301  0.00  0.00    -0.183 N 
ATOM     43  H           0     130.922 133.707 137.269  0.00  0.00     0.174 HD
ATOM     44  H           0     130.961 132.093 136.803  0.00  0.00     0.174 HD
ATOM     45  C           0     130.503 132.754 132.886  0.00  0.00     0.217 C 
ATOM     46  C           0     131.040 131.032 134.372  0.00  0.00     0.150 C 
ATOM     47  C           0     130.626 134.223 132.516  0.00  0.00     0.180 C 
ATOM     48  C           0     131.504 131.879 132.112  0.00  0.00     0.209 C 
ATOM     49  N           0     129.126 132.384 132.521  0.00  0.00    -0.191 N 
ATOM     50  N           0     129.235 134.635 132.230  0.00  0.00    -0.216 N 
ATOM     51  C           0     128.502 133.494 132.009  0.00  0.00     0.670 C 
ATOM     52  H           0     128.900 135.545 132.206  0.00  0.00     0.178 HD
ATOM     53  N           0     127.357 133.469 131.388  0.00  0.00    -0.235 N 
ATOM     54  H           0     126.971 134.292 131.049  0.00  0.00     0.174 HD
ATOM     55  H           0     126.891 132.628 131.263  0.00  0.00     0.174 HD
ATOM     56  C           0     131.863 130.738 133.096  0.00  0.00     0.093 C 
ATOM     57  H           0     128.728 131.505 132.622  0.00  0.00     0.180 HD
BRANCH  48  58
ATOM     58  O           0     130.898 131.348 130.932  0.00  0.00    -0.362 OA
ATOM     59  H           0     129.942 131.440 131.042  0.00  0.00     0.213 HD
ENDBRANCH  48  58
BRANCH  48  60
ATOM     60  O           0     132.669 132.635 131.778  0.00  0.00    -0.362 OA
ATOM     61  H           0     133.288 132.023 131.357  0.00  0.00     0.213 HD
ENDBRANCH  48  60
ENDBRANCH  36  37
ENDBRANCH  35  36
ENDBRANCH   1  35
TORSDOF 18
ENDMDL
MODEL 9
REMARK VINA RESULT:      -7.9      2.781     12.881
REMARK  18 active torsions:
REMARK  status: ('A' for Active; 'I' for Inactive)
REMARK    1  A    between atoms: C_6  and  C_7 
REMARK    2  A    between atoms: C_7  and  O_8 
REMARK    3  A    between atoms: O_8  and  C_9 
REMARK       I    between atoms: C_9  and  N_10 
REMARK    4  A    between atoms: N_10  and  C_11 
REMARK    5  A    between atoms: C_11  and  C_12 
REMARK    6  A    between atoms: C_12  and  N_13 
REMARK       I    between atoms: N_13  and  C_14 
REMARK    7  A    between atoms: C_14  and  C_15 
REMARK    8  A    between atoms: C_15  and  C_16 
REMARK    9  A    between atoms: C_16  and  N_17 
REMARK   10  A    between atoms: C_20  and  C_21 
REMARK   11  A    between atoms: C_21  and  C_22 
REMARK   12  A    between atoms: C_22  and  C_23 
REMARK   13  A    between atoms: N_25  and  C_26 
REMARK   14  A    between atoms: C_26  and  C_27 
REMARK   15  A    between atoms: C_27  and  C_28 
REMARK   16  A    between atoms: C_28  and  N_29 
REMARK       I    between atoms: N_29  and  C_30 
REMARK   17  A    between atoms: C_51  and  O_52 
REMARK   18  A    between atoms: C_51  and  O_53 
ROOT
ATOM      1  C           0     132.507 135.171 136.221  0.00  0.00     0.360 C 
ATOM      2  N           0     132.531 134.772 137.508  0.00  0.00    -0.335 N 
ATOM      3  O           0     133.449 135.783 135.758  0.00  0.00    -0.239 OA
ATOM      4  H           0     131.779 134.284 137.878  0.00  0.00     0.164 HD
ENDROOT
BRANCH   2   5
ATOM      5  C           0     133.692 135.077 138.348  0.00  0.00     0.144 C 
BRANCH   5   6
ATOM      6  C           0     133.234 135.292 139.792  0.00  0.00     0.142 C 
BRANCH   6   7
ATOM      7  N           0     133.928 134.348 140.670  0.00  0.00    -0.359 N 
ATOM      8  C           0     133.243 133.346 141.259  0.00  0.00     0.219 C 
ATOM      9  O           0     132.053 133.228 141.060  0.00  0.00    -0.274 OA
ATOM     10  H           0     134.880 134.442 140.830  0.00  0.00     0.162 HD
BRANCH   8  11
ATOM     11  C           0     133.957 132.375 142.162  0.00  0.00     0.123 C 
BRANCH  11  12
ATOM     12  C           0     134.229 133.040 143.514  0.00  0.00     0.145 C 
BRANCH  12  13
ATOM     13  N           0     135.604 132.753 143.931  0.00  0.00    -0.281 N 
ATOM     14  C           0     135.954 131.909 144.917  0.00  0.00     0.256 A 
ATOM     15  C           0     137.430 131.899 145.021  0.00  0.00     0.016 A 
ATOM     16  O           0     135.190 131.259 145.601  0.00  0.00    -0.267 OA
ATOM     17  C           0     137.890 132.752 144.091  0.00  0.00     0.087 A 
ATOM     18  C           0     136.708 133.300 143.391  0.00  0.00     0.251 A 
ATOM     19  O           0     136.729 134.106 142.483  0.00  0.00    -0.268 OA
BRANCH  15  20
ATOM     20  C           0     138.258 131.093 145.988  0.00  0.00     0.051 C 
BRANCH  20  21
ATOM     21  C           0     138.693 131.983 147.153  0.00  0.00     0.067 C 
BRANCH  21  22
ATOM     22  C           0     137.495 132.321 148.003  0.00  0.00     0.076 A 
ATOM     23  N           0     136.896 133.513 148.103  0.00  0.00    -0.135 NA
ATOM     24  N           0     135.907 133.415 148.920  0.00  0.00    -0.066 NA
ATOM     25  N           0     135.825 132.213 149.375  0.00  0.00    -0.261 N 
ATOM     26  C           0     136.817 131.481 148.819  0.00  0.00     0.142 A 
BRANCH  25  27
ATOM     27  C           0     134.830 131.724 150.333  0.00  0.00     0.154 C 
BRANCH  27  28
ATOM     28  C           0     133.504 131.479 149.609  0.00  0.00     0.041 C 
BRANCH  28  29
ATOM     29  C           0     133.001 130.070 149.929  0.00  0.00     0.124 C 
BRANCH  29  30
ATOM     30  N           0     132.990 129.266 148.705  0.00  0.00    -0.361 N 
ATOM     31  C           0     132.136 128.231 148.586  0.00  0.00     0.213 C 
ATOM     32  C           0     132.125 127.403 147.326  0.00  0.00     0.117 C 
ATOM     33  O           0     131.376 127.965 149.492  0.00  0.00    -0.274 OA
ATOM     34  H           0     133.599 129.478 147.980  0.00  0.00     0.162 HD
ENDBRANCH  29  30
ENDBRANCH  28  29
ENDBRANCH  27  28
ENDBRANCH  25  27
ENDBRANCH  21  22
ENDBRANCH  20  21
ENDBRANCH  15  20
ENDBRANCH  12  13
ENDBRANCH  11  12
ENDBRANCH   8  11
ENDBRANCH   6   7
ENDBRANCH   5   6
ENDBRANCH   2   5
BRANCH   1  35
ATOM     35  O           0     131.440 134.892 135.449  0.00  0.00    -0.302 OA
BRANCH  35  36
ATOM     36  C           0     131.229 133.540 134.963  0.00  0.00     0.208 C 
BRANCH  36  37
ATOM     37  C           0     132.494 133.048 134.257  0.00  0.00     0.151 C 
ATOM     38  N           0     132.617 133.737 132.976  0.00  0.00    -0.218 N 
ATOM     39  C           0     131.711 133.430 131.977  0.00  0.00     0.672 C 
ATOM     40  H           0     133.317 134.392 132.828  0.00  0.00     0.178 HD
ATOM     41  N           0     131.374 134.290 131.056  0.00  0.00    -0.235 N 
ATOM     42  N           0     131.185 132.165 132.020  0.00  0.00    -0.183 N 
ATOM     43  H           0     131.762 135.179 131.058  0.00  0.00     0.174 HD
ATOM     44  H           0     130.737 134.040 130.368  0.00  0.00     0.174 HD
ATOM     45  C           0     131.588 131.079 132.916  0.00  0.00     0.217 C 
ATOM     46  C           0     130.066 131.622 131.228  0.00  0.00     0.150 C 
ATOM     47  C           0     132.413 131.542 134.106  0.00  0.00     0.180 C 
ATOM     48  C           0     130.277 130.404 133.353  0.00  0.00     0.209 C 
ATOM     49  N           0     132.443 130.108 132.215  0.00  0.00    -0.191 N 
ATOM     50  N           0     133.764 131.008 133.830  0.00  0.00    -0.216 N 
ATOM     51  C           0     133.633 130.011 132.893  0.00  0.00     0.670 C 
ATOM     52  H           0     134.593 131.307 134.236  0.00  0.00     0.178 HD
ATOM     53  N           0     134.526 129.089 132.677  0.00  0.00    -0.235 N 
ATOM     54  H           0     135.348 129.078 133.192  0.00  0.00     0.174 HD
ATOM     55  H           0     134.370 128.412 131.999  0.00  0.00     0.174 HD
ATOM     56  C           0     129.265 130.764 132.236  0.00  0.00     0.093 C 
ATOM     57  H           0     132.206 129.617 131.413  0.00  0.00     0.180 HD
BRANCH  48  58
ATOM     58  O           0     130.445 128.987 133.435  0.00  0.00    -0.362 OA
ATOM     59  H           0     130.234 128.732 134.344  0.00  0.00     0.213 HD
ENDBRANCH  48  58
BRANCH  48  60
ATOM     60  O           0     129.842 130.929 134.608  0.00  0.00    -0.362 OA
ATOM     61  H           0     130.511 130.683 135.261  0.00  0.00     0.213 HD
ENDBRANCH  48  60
ENDBRANCH  36  37
ENDBRANCH  35  36
ENDBRANCH   1  35
TORSDOF 18
ENDMDL
