MODEL 1
REMARK VINA RESULT:      -7.9      0.000      0.000
REMARK  5 active torsions:
REMARK  status: ('A' for Active; 'I' for Inactive)
REMARK    1  A    between atoms: C_6  and  C_7 
REMARK    2  A    between atoms: C_7  and  O_8 
REMARK    3  A    between atoms: O_8  and  C_9 
REMARK       I    between atoms: C_9  and  N_10 
REMARK    4  A    between atoms: C_23  and  O_24 
REMARK    5  A    between atoms: C_23  and  O_25 
ROOT
ATOM      1  N           0     135.071 136.801 143.156  0.00  0.00    -0.235 N 
ATOM      2  H           0     134.291 137.322 142.910  0.00  0.00     0.174 HD
ATOM      3  H           0     135.915 137.246 143.331  0.00  0.00     0.174 HD
ATOM      4  C           0     134.984 135.504 143.258  0.00  0.00     0.672 C 
ATOM      5  N           0     133.802 134.824 143.024  0.00  0.00    -0.218 N 
ATOM      6  C           0     133.879 133.447 142.544  0.00  0.00     0.151 C 
ATOM      7  C           0     134.790 132.583 143.393  0.00  0.00     0.180 C 
ATOM      8  N           0     134.088 132.218 144.642  0.00  0.00    -0.216 N 
ATOM      9  C           0     135.005 132.274 145.664  0.00  0.00     0.670 C 
ATOM     10  N           0     134.855 131.684 146.816  0.00  0.00    -0.235 N 
ATOM     11  H           0     134.055 131.165 146.994  0.00  0.00     0.174 HD
ATOM     12  H           0     135.543 131.764 147.495  0.00  0.00     0.174 HD
ATOM     13  C           0     136.048 133.289 143.873  0.00  0.00     0.217 C 
ATOM     14  N           0     136.099 133.029 145.321  0.00  0.00    -0.191 N 
ATOM     15  N           0     136.060 134.725 143.598  0.00  0.00    -0.183 N 
ATOM     16  C           0     137.473 135.132 143.707  0.00  0.00     0.150 C 
ATOM     17  C           0     138.260 133.954 143.083  0.00  0.00     0.093 C 
ATOM     18  C           0     137.313 132.732 143.197  0.00  0.00     0.209 C 
ATOM     19  H           0     132.945 135.251 143.177  0.00  0.00     0.178 HD
ATOM     20  H           0     133.151 131.982 144.726  0.00  0.00     0.178 HD
ATOM     21  H           0     136.790 133.335 145.929  0.00  0.00     0.180 HD
ENDROOT
BRANCH   6  22
ATOM     22  C           0     134.404 133.455 141.107  0.00  0.00     0.208 C 
BRANCH  22  23
ATOM     23  O           0     133.312 133.732 140.193  0.00  0.00    -0.302 OA
BRANCH  23  24
ATOM     24  C           0     133.382 134.789 139.361  0.00  0.00     0.358 C 
ATOM     25  N           0     133.547 136.030 139.861  0.00  0.00    -0.346 N 
ATOM     26  H           0     133.617 136.162 140.819  0.00  0.00     0.161 HD
ATOM     27  H           0     133.597 136.792 139.262  0.00  0.00     0.161 HD
ATOM     28  O           0     133.295 134.624 138.161  0.00  0.00    -0.239 OA
ENDBRANCH  23  24
ENDBRANCH  22  23
ENDBRANCH   6  22
BRANCH  18  29
ATOM     29  O           0     137.908 131.714 144.003  0.00  0.00    -0.362 OA
ATOM     30  H           0     137.233 131.427 144.634  0.00  0.00     0.213 HD
ENDBRANCH  18  29
BRANCH  18  31
ATOM     31  O           0     136.999 132.222 141.899  0.00  0.00    -0.362 OA
ATOM     32  H           0     136.448 131.439 142.033  0.00  0.00     0.213 HD
ENDBRANCH  18  31
TORSDOF 5
ENDMDL
MODEL 2
REMARK VINA RESULT:      -7.3      1.851      5.359
REMARK  5 active torsions:
REMARK  status: ('A' for Active; 'I' for Inactive)
REMARK    1  A    between atoms: C_6  and  C_7 
REMARK    2  A    between atoms: C_7  and  O_8 
REMARK    3  A    between atoms: O_8  and  C_9 
REMARK       I    between atoms: C_9  and  N_10 
REMARK    4  A    between atoms: C_23  and  O_24 
REMARK    5  A    between atoms: C_23  and  O_25 
ROOT
ATOM      1  N           0     134.738 131.915 146.586  0.00  0.00    -0.235 N 
ATOM      2  H           0     134.956 131.984 147.528  0.00  0.00     0.174 HD
ATOM      3  H           0     134.083 131.264 146.287  0.00  0.00     0.174 HD
ATOM      4  C           0     135.321 132.696 145.721  0.00  0.00     0.672 C 
ATOM      5  N           0     136.258 133.643 146.098  0.00  0.00    -0.218 N 
ATOM      6  C           0     137.287 134.020 145.134  0.00  0.00     0.151 C 
ATOM      7  C           0     136.711 134.402 143.785  0.00  0.00     0.180 C 
ATOM      8  N           0     136.141 135.764 143.868  0.00  0.00    -0.216 N 
ATOM      9  C           0     134.975 135.770 143.142  0.00  0.00     0.670 C 
ATOM     10  N           0     134.397 136.848 142.692  0.00  0.00    -0.235 N 
ATOM     11  H           0     134.793 137.717 142.865  0.00  0.00     0.174 HD
ATOM     12  H           0     133.573 136.782 142.185  0.00  0.00     0.174 HD
ATOM     13  C           0     135.538 133.541 143.343  0.00  0.00     0.217 C 
ATOM     14  N           0     134.492 134.499 142.948  0.00  0.00    -0.191 N 
ATOM     15  N           0     135.051 132.631 144.379  0.00  0.00    -0.183 N 
ATOM     16  C           0     134.265 131.609 143.663  0.00  0.00     0.150 C 
ATOM     17  C           0     135.060 131.359 142.359  0.00  0.00     0.093 C 
ATOM     18  C           0     135.902 132.643 142.148  0.00  0.00     0.209 C 
ATOM     19  H           0     136.232 134.045 146.980  0.00  0.00     0.178 HD
ATOM     20  H           0     136.521 136.517 144.347  0.00  0.00     0.178 HD
ATOM     21  H           0     133.613 134.272 142.607  0.00  0.00     0.180 HD
ENDROOT
BRANCH   6  22
ATOM     22  C           0     138.243 132.841 144.945  0.00  0.00     0.208 C 
BRANCH  22  23
ATOM     23  O           0     137.964 131.826 145.945  0.00  0.00    -0.302 OA
BRANCH  23  24
ATOM     24  C           0     137.952 130.525 145.599  0.00  0.00     0.358 C 
ATOM     25  N           0     138.418 129.595 146.456  0.00  0.00    -0.346 N 
ATOM     26  H           0     138.763 129.863 147.323  0.00  0.00     0.161 HD
ATOM     27  H           0     138.410 128.657 146.207  0.00  0.00     0.161 HD
ATOM     28  O           0     137.520 130.189 144.514  0.00  0.00    -0.239 OA
ENDBRANCH  23  24
ENDBRANCH  22  23
ENDBRANCH   6  22
BRANCH  18  29
ATOM     29  O           0     135.546 133.275 140.917  0.00  0.00    -0.362 OA
ATOM     30  H           0     136.204 133.966 140.757  0.00  0.00     0.213 HD
ENDBRANCH  18  29
BRANCH  18  31
ATOM     31  O           0     137.297 132.334 142.166  0.00  0.00    -0.362 OA
ATOM     32  H           0     137.716 132.970 142.762  0.00  0.00     0.213 HD
ENDBRANCH  18  31
TORSDOF 5
ENDMDL
MODEL 3
REMARK VINA RESULT:      -6.8      2.802      3.991
REMARK  5 active torsions:
REMARK  status: ('A' for Active; 'I' for Inactive)
REMARK    1  A    between atoms: C_6  and  C_7 
REMARK    2  A    between atoms: C_7  and  O_8 
REMARK    3  A    between atoms: O_8  and  C_9 
REMARK       I    between atoms: C_9  and  N_10 
REMARK    4  A    between atoms: C_23  and  O_24 
REMARK    5  A    between atoms: C_23  and  O_25 
ROOT
ATOM      1  N           0     136.025 134.022 146.103  0.00  0.00    -0.235 N 
ATOM      2  H           0     135.361 134.645 145.771  0.00  0.00     0.174 HD
ATOM      3  H           0     136.841 134.355 146.511  0.00  0.00     0.174 HD
ATOM      4  C           0     135.823 132.738 146.006  0.00  0.00     0.672 C 
ATOM      5  N           0     134.675 132.214 145.437  0.00  0.00    -0.218 N 
ATOM      6  C           0     134.756 130.902 144.801  0.00  0.00     0.151 C 
ATOM      7  C           0     135.388 129.856 145.697  0.00  0.00     0.180 C 
ATOM      8  N           0     134.402 129.421 146.708  0.00  0.00    -0.216 N 
ATOM      9  C           0     135.070 129.263 147.897  0.00  0.00     0.670 C 
ATOM     10  N           0     134.624 128.560 148.901  0.00  0.00    -0.235 N 
ATOM     11  H           0     133.769 128.107 148.833  0.00  0.00     0.174 HD
ATOM     12  H           0     135.148 128.489 149.714  0.00  0.00     0.174 HD
ATOM     13  C           0     136.557 130.369 146.523  0.00  0.00     0.217 C 
ATOM     14  N           0     136.266 129.937 147.900  0.00  0.00    -0.191 N 
ATOM     15  N           0     136.736 131.819 146.456  0.00  0.00    -0.183 N 
ATOM     16  C           0     138.115 132.064 146.915  0.00  0.00     0.150 C 
ATOM     17  C           0     138.932 130.893 146.316  0.00  0.00     0.093 C 
ATOM     18  C           0     137.896 129.770 146.059  0.00  0.00     0.209 C 
ATOM     19  H           0     133.840 132.705 145.462  0.00  0.00     0.178 HD
ATOM     20  H           0     133.455 129.273 146.559  0.00  0.00     0.178 HD
ATOM     21  H           0     136.825 130.098 148.676  0.00  0.00     0.180 HD
ENDROOT
BRANCH   6  22
ATOM     22  C           0     135.587 131.025 143.522  0.00  0.00     0.208 C 
BRANCH  22  23
ATOM     23  O           0     134.861 131.817 142.546  0.00  0.00    -0.302 OA
BRANCH  23  24
ATOM     24  C           0     135.348 133.008 142.149  0.00  0.00     0.358 C 
ATOM     25  N           0     135.818 133.160 140.895  0.00  0.00    -0.346 N 
ATOM     26  H           0     135.806 132.410 140.278  0.00  0.00     0.161 HD
ATOM     27  H           0     136.169 134.018 140.609  0.00  0.00     0.161 HD
ATOM     28  O           0     135.362 133.946 142.921  0.00  0.00    -0.239 OA
ENDBRANCH  23  24
ENDBRANCH  22  23
ENDBRANCH   6  22
BRANCH  18  29
ATOM     29  O           0     138.220 128.609 146.826  0.00  0.00    -0.362 OA
ATOM     30  H           0     137.733 128.679 147.659  0.00  0.00     0.213 HD
ENDBRANCH  18  29
BRANCH  18  31
ATOM     31  O           0     137.842 129.450 144.667  0.00  0.00    -0.362 OA
ATOM     32  H           0     137.915 130.286 144.186  0.00  0.00     0.213 HD
ENDBRANCH  18  31
TORSDOF 5
ENDMDL
MODEL 4
REMARK VINA RESULT:      -6.7      2.578      5.188
REMARK  5 active torsions:
REMARK  status: ('A' for Active; 'I' for Inactive)
REMARK    1  A    between atoms: C_6  and  C_7 
REMARK    2  A    between atoms: C_7  and  O_8 
REMARK    3  A    between atoms: O_8  and  C_9 
REMARK       I    between atoms: C_9  and  N_10 
REMARK    4  A    between atoms: C_23  and  O_24 
REMARK    5  A    between atoms: C_23  and  O_25 
ROOT
ATOM      1  N           0     136.226 134.596 146.723  0.00  0.00    -0.235 N 
ATOM      2  H           0     136.653 135.449 146.897  0.00  0.00     0.174 HD
ATOM      3  H           0     135.815 134.102 147.450  0.00  0.00     0.174 HD
ATOM      4  C           0     136.199 134.115 145.512  0.00  0.00     0.672 C 
ATOM      5  N           0     136.766 134.783 144.440  0.00  0.00    -0.218 N 
ATOM      6  C           0     137.259 133.994 143.315  0.00  0.00     0.151 C 
ATOM      7  C           0     136.229 133.009 142.797  0.00  0.00     0.180 C 
ATOM      8  N           0     135.228 133.734 141.986  0.00  0.00    -0.216 N 
ATOM      9  C           0     133.997 133.194 142.268  0.00  0.00     0.670 C 
ATOM     10  N           0     132.950 133.319 141.502  0.00  0.00    -0.235 N 
ATOM     11  H           0     133.013 133.820 140.673  0.00  0.00     0.174 HD
ATOM     12  H           0     132.109 132.911 141.760  0.00  0.00     0.174 HD
ATOM     13  C           0     135.404 132.342 143.886  0.00  0.00     0.217 C 
ATOM     14  N           0     134.006 132.506 143.455  0.00  0.00    -0.191 N 
ATOM     15  N           0     135.612 132.912 145.217  0.00  0.00    -0.183 N 
ATOM     16  C           0     135.113 131.894 146.160  0.00  0.00     0.150 C 
ATOM     17  C           0     135.546 130.546 145.533  0.00  0.00     0.093 C 
ATOM     18  C           0     135.736 130.847 144.024  0.00  0.00     0.209 C 
ATOM     19  H           0     136.834 135.750 144.437  0.00  0.00     0.178 HD
ATOM     20  H           0     135.408 134.459 141.367  0.00  0.00     0.178 HD
ATOM     21  H           0     133.224 132.181 143.929  0.00  0.00     0.180 HD
ENDROOT
BRANCH   6  22
ATOM     22  C           0     138.501 133.220 143.762  0.00  0.00     0.208 C 
BRANCH  22  23
ATOM     23  O           0     138.510 133.111 145.209  0.00  0.00    -0.302 OA
BRANCH  23  24
ATOM     24  C           0     139.272 132.177 145.810  0.00  0.00     0.358 C 
ATOM     25  N           0     140.534 132.473 146.179  0.00  0.00    -0.346 N 
ATOM     26  H           0     140.894 133.359 146.012  0.00  0.00     0.161 HD
ATOM     27  H           0     141.083 131.800 146.612  0.00  0.00     0.161 HD
ATOM     28  O           0     138.821 131.068 146.019  0.00  0.00    -0.239 OA
ENDBRANCH  23  24
ENDBRANCH  22  23
ENDBRANCH   6  22
BRANCH  18  29
ATOM     29  O           0     134.838 130.057 143.243  0.00  0.00    -0.362 OA
ATOM     30  H           0     134.203 129.665 143.859  0.00  0.00     0.213 HD
ENDBRANCH  18  29
BRANCH  18  31
ATOM     31  O           0     137.088 130.600 143.633  0.00  0.00    -0.362 OA
ATOM     32  H           0     137.065 129.883 142.984  0.00  0.00     0.213 HD
ENDBRANCH  18  31
TORSDOF 5
ENDMDL
MODEL 5
REMARK VINA RESULT:      -6.7      2.425      3.624
REMARK  5 active torsions:
REMARK  status: ('A' for Active; 'I' for Inactive)
REMARK    1  A    between atoms: C_6  and  C_7 
REMARK    2  A    between atoms: C_7  and  O_8 
REMARK    3  A    between atoms: O_8  and  C_9 
REMARK       I    between atoms: C_9  and  N_10 
REMARK    4  A    between atoms: C_23  and  O_24 
REMARK    5  A    between atoms: C_23  and  O_25 
ROOT
ATOM      1  N           0     139.325 132.863 143.751  0.00  0.00    -0.235 N 
ATOM      2  H           0     139.764 133.520 143.190  0.00  0.00     0.174 HD
ATOM      3  H           0     139.743 132.000 143.905  0.00  0.00     0.174 HD
ATOM      4  C           0     138.175 133.137 144.301  0.00  0.00     0.672 C 
ATOM      5  N           0     137.541 134.353 144.116  0.00  0.00    -0.218 N 
ATOM      6  C           0     136.084 134.392 144.196  0.00  0.00     0.151 C 
ATOM      7  C           0     135.550 133.741 145.456  0.00  0.00     0.180 C 
ATOM      8  N           0     135.742 134.661 146.597  0.00  0.00    -0.216 N 
ATOM      9  C           0     136.122 133.905 147.680  0.00  0.00     0.670 C 
ATOM     10  N           0     136.031 134.301 148.918  0.00  0.00    -0.235 N 
ATOM     11  H           0     135.676 135.180 149.121  0.00  0.00     0.174 HD
ATOM     12  H           0     136.317 133.715 149.636  0.00  0.00     0.174 HD
ATOM     13  C           0     136.297 132.483 145.870  0.00  0.00     0.217 C 
ATOM     14  N           0     136.609 132.680 147.296  0.00  0.00    -0.191 N 
ATOM     15  N           0     137.514 132.238 145.097  0.00  0.00    -0.183 N 
ATOM     16  C           0     137.833 130.814 145.312  0.00  0.00     0.150 C 
ATOM     17  C           0     136.454 130.110 145.320  0.00  0.00     0.093 C 
ATOM     18  C           0     135.438 131.220 145.694  0.00  0.00     0.209 C 
ATOM     19  H           0     138.052 135.158 143.939  0.00  0.00     0.178 HD
ATOM     20  H           0     135.622 135.623 146.585  0.00  0.00     0.178 HD
ATOM     21  H           0     137.077 132.051 147.867  0.00  0.00     0.180 HD
ENDROOT
BRANCH   6  22
ATOM     22  C           0     135.504 133.665 142.981  0.00  0.00     0.208 C 
BRANCH  22  23
ATOM     23  O           0     134.054 133.703 143.041  0.00  0.00    -0.302 OA
BRANCH  23  24
ATOM     24  C           0     133.326 133.292 141.985  0.00  0.00     0.358 C 
ATOM     25  N           0     132.920 132.009 141.905  0.00  0.00    -0.346 N 
ATOM     26  H           0     133.153 131.381 142.607  0.00  0.00     0.161 HD
ATOM     27  H           0     132.396 131.713 141.144  0.00  0.00     0.161 HD
ATOM     28  O           0     133.034 134.078 141.106  0.00  0.00    -0.239 OA
ENDBRANCH  23  24
ENDBRANCH  22  23
ENDBRANCH   6  22
BRANCH  18  29
ATOM     29  O           0     134.768 130.891 146.912  0.00  0.00    -0.362 OA
ATOM     30  H           0     134.776 129.927 146.984  0.00  0.00     0.213 HD
ENDBRANCH  18  29
BRANCH  18  31
ATOM     31  O           0     134.493 131.405 144.638  0.00  0.00    -0.362 OA
ATOM     32  H           0     133.614 131.376 145.042  0.00  0.00     0.213 HD
ENDBRANCH  18  31
TORSDOF 5
ENDMDL
MODEL 6
REMARK VINA RESULT:      -6.6      5.334      9.836
REMARK  5 active torsions:
REMARK  status: ('A' for Active; 'I' for Inactive)
REMARK    1  A    between atoms: C_6  and  C_7 
REMARK    2  A    between atoms: C_7  and  O_8 
REMARK    3  A    between atoms: O_8  and  C_9 
REMARK       I    between atoms: C_9  and  N_10 
REMARK    4  A    between atoms: C_23  and  O_24 
REMARK    5  A    between atoms: C_23  and  O_25 
ROOT
ATOM      1  N           0     131.349 132.187 134.854  0.00  0.00    -0.235 N 
ATOM      2  H           0     130.744 131.833 135.524  0.00  0.00     0.174 HD
ATOM      3  H           0     131.729 131.597 134.184  0.00  0.00     0.174 HD
ATOM      4  C           0     131.647 133.456 134.849  0.00  0.00     0.672 C 
ATOM      5  N           0     131.127 134.339 135.779  0.00  0.00    -0.218 N 
ATOM      6  C           0     131.913 135.518 136.129  0.00  0.00     0.151 C 
ATOM      7  C           0     132.375 136.295 134.911  0.00  0.00     0.180 C 
ATOM      8  N           0     131.242 137.079 134.377  0.00  0.00    -0.216 N 
ATOM      9  C           0     131.307 137.021 133.006  0.00  0.00     0.670 C 
ATOM     10  N           0     130.714 137.863 132.208  0.00  0.00    -0.235 N 
ATOM     11  H           0     130.185 138.589 132.575  0.00  0.00     0.174 HD
ATOM     12  H           0     130.802 137.765 131.247  0.00  0.00     0.174 HD
ATOM     13  C           0     132.799 135.422 133.742  0.00  0.00     0.217 C 
ATOM     14  N           0     132.075 135.966 132.581  0.00  0.00    -0.191 N 
ATOM     15  N           0     132.501 134.001 133.926  0.00  0.00    -0.183 N 
ATOM     16  C           0     133.355 133.294 132.954  0.00  0.00     0.150 C 
ATOM     17  C           0     134.688 134.081 132.971  0.00  0.00     0.093 C 
ATOM     18  C           0     134.316 135.492 133.492  0.00  0.00     0.209 C 
ATOM     19  H           0     130.262 134.178 136.187  0.00  0.00     0.178 HD
ATOM     20  H           0     130.573 137.551 134.899  0.00  0.00     0.178 HD
ATOM     21  H           0     132.133 135.637 131.670  0.00  0.00     0.180 HD
ENDROOT
BRANCH   6  22
ATOM     22  C           0     133.141 135.073 136.925  0.00  0.00     0.208 C 
BRANCH  22  23
ATOM     23  O           0     132.715 134.423 138.151  0.00  0.00    -0.302 OA
BRANCH  23  24
ATOM     24  C           0     133.227 134.813 139.334  0.00  0.00     0.358 C 
ATOM     25  N           0     133.463 136.119 139.568  0.00  0.00    -0.346 N 
ATOM     26  H           0     133.264 136.778 138.885  0.00  0.00     0.161 HD
ATOM     27  H           0     133.832 136.400 140.420  0.00  0.00     0.161 HD
ATOM     28  O           0     133.475 133.987 140.190  0.00  0.00    -0.239 OA
ENDBRANCH  23  24
ENDBRANCH  22  23
ENDBRANCH   6  22
BRANCH  18  29
ATOM     29  O           0     134.618 136.482 132.506  0.00  0.00    -0.362 OA
ATOM     30  H           0     133.908 136.449 131.850  0.00  0.00     0.213 HD
ENDBRANCH  18  29
BRANCH  18  31
ATOM     31  O           0     135.007 135.773 134.711  0.00  0.00    -0.362 OA
ATOM     32  H           0     135.863 135.326 134.655  0.00  0.00     0.213 HD
ENDBRANCH  18  31
TORSDOF 5
ENDMDL
MODEL 7
REMARK VINA RESULT:      -6.6      4.735      7.048
REMARK  5 active torsions:
REMARK  status: ('A' for Active; 'I' for Inactive)
REMARK    1  A    between atoms: C_6  and  C_7 
REMARK    2  A    between atoms: C_7  and  O_8 
REMARK    3  A    between atoms: O_8  and  C_9 
REMARK       I    between atoms: C_9  and  N_10 
REMARK    4  A    between atoms: C_23  and  O_24 
REMARK    5  A    between atoms: C_23  and  O_25 
ROOT
ATOM      1  N           0     135.263 132.611 149.356  0.00  0.00    -0.235 N 
ATOM      2  H           0     135.089 132.582 150.309  0.00  0.00     0.174 HD
ATOM      3  H           0     135.205 133.453 148.878  0.00  0.00     0.174 HD
ATOM      4  C           0     135.579 131.520 148.716  0.00  0.00     0.672 C 
ATOM      5  N           0     135.680 130.295 149.353  0.00  0.00    -0.218 N 
ATOM      6  C           0     135.413 129.088 148.577  0.00  0.00     0.151 C 
ATOM      7  C           0     136.201 129.040 147.283  0.00  0.00     0.180 C 
ATOM      8  N           0     137.600 128.668 147.578  0.00  0.00    -0.216 N 
ATOM      9  C           0     138.411 129.422 146.766  0.00  0.00     0.670 C 
ATOM     10  N           0     139.648 129.125 146.485  0.00  0.00    -0.235 N 
ATOM     11  H           0     140.051 128.326 146.859  0.00  0.00     0.174 HD
ATOM     12  H           0     140.165 129.703 145.903  0.00  0.00     0.174 HD
ATOM     13  C           0     136.320 130.382 146.578  0.00  0.00     0.217 C 
ATOM     14  N           0     137.756 130.529 146.286  0.00  0.00    -0.191 N 
ATOM     15  N           0     135.828 131.510 147.369  0.00  0.00    -0.183 N 
ATOM     16  C           0     135.606 132.599 146.399  0.00  0.00     0.150 C 
ATOM     17  C           0     135.037 131.887 145.148  0.00  0.00     0.093 C 
ATOM     18  C           0     135.514 130.417 145.268  0.00  0.00     0.209 C 
ATOM     19  H           0     135.922 130.241 150.291  0.00  0.00     0.178 HD
ATOM     20  H           0     137.894 128.009 148.228  0.00  0.00     0.178 HD
ATOM     21  H           0     138.168 131.279 145.829  0.00  0.00     0.180 HD
ENDROOT
BRANCH   6  22
ATOM     22  C           0     133.920 129.032 148.249  0.00  0.00     0.208 C 
BRANCH  22  23
ATOM     23  O           0     133.659 127.907 147.370  0.00  0.00    -0.302 OA
BRANCH  23  24
ATOM     24  C           0     132.474 127.269 147.426  0.00  0.00     0.358 C 
ATOM     25  N           0     132.373 125.996 146.997  0.00  0.00    -0.346 N 
ATOM     26  H           0     133.154 125.537 146.648  0.00  0.00     0.161 HD
ATOM     27  H           0     131.519 125.537 147.037  0.00  0.00     0.161 HD
ATOM     28  O           0     131.496 127.843 147.863  0.00  0.00    -0.239 OA
ENDBRANCH  23  24
ENDBRANCH  22  23
ENDBRANCH   6  22
BRANCH  18  29
ATOM     29  O           0     136.343 130.071 144.157  0.00  0.00    -0.362 OA
ATOM     30  H           0     135.769 129.655 143.499  0.00  0.00     0.213 HD
ENDBRANCH  18  29
BRANCH  18  31
ATOM     31  O           0     134.393 129.534 145.351  0.00  0.00    -0.362 OA
ATOM     32  H           0     134.649 128.813 145.942  0.00  0.00     0.213 HD
ENDBRANCH  18  31
TORSDOF 5
ENDMDL
MODEL 8
REMARK VINA RESULT:      -6.5      3.762      6.463
REMARK  5 active torsions:
REMARK  status: ('A' for Active; 'I' for Inactive)
REMARK    1  A    between atoms: C_6  and  C_7 
REMARK    2  A    between atoms: C_7  and  O_8 
REMARK    3  A    between atoms: O_8  and  C_9 
REMARK       I    between atoms: C_9  and  N_10 
REMARK    4  A    between atoms: C_23  and  O_24 
REMARK    5  A    between atoms: C_23  and  O_25 
ROOT
ATOM      1  N           0     139.193 129.703 146.521  0.00  0.00    -0.235 N 
ATOM      2  H           0     139.318 128.748 146.403  0.00  0.00     0.174 HD
ATOM      3  H           0     139.852 130.221 147.008  0.00  0.00     0.174 HD
ATOM      4  C           0     138.141 130.290 146.021  0.00  0.00     0.672 C 
ATOM      5  N           0     137.175 129.595 145.314  0.00  0.00    -0.218 N 
ATOM      6  C           0     135.807 130.104 145.330  0.00  0.00     0.151 C 
ATOM      7  C           0     135.726 131.574 144.968  0.00  0.00     0.180 C 
ATOM      8  N           0     135.876 131.723 143.505  0.00  0.00    -0.216 N 
ATOM      9  C           0     136.650 132.835 143.279  0.00  0.00     0.670 C 
ATOM     10  N           0     136.696 133.478 142.147  0.00  0.00    -0.235 N 
ATOM     11  H           0     136.160 133.177 141.396  0.00  0.00     0.174 HD
ATOM     12  H           0     137.265 134.258 142.055  0.00  0.00     0.174 HD
ATOM     13  C           0     136.854 132.418 145.540  0.00  0.00     0.217 C 
ATOM     14  N           0     137.370 133.186 144.394  0.00  0.00    -0.191 N 
ATOM     15  N           0     137.918 131.634 146.167  0.00  0.00    -0.183 N 
ATOM     16  C           0     138.649 132.585 147.025  0.00  0.00     0.150 C 
ATOM     17  C           0     137.544 133.491 147.620  0.00  0.00     0.093 C 
ATOM     18  C           0     136.356 133.380 146.632  0.00  0.00     0.209 C 
ATOM     19  H           0     137.402 128.792 144.821  0.00  0.00     0.178 HD
ATOM     20  H           0     135.497 131.142 142.827  0.00  0.00     0.178 HD
ATOM     21  H           0     138.094 133.831 144.423  0.00  0.00     0.180 HD
ENDROOT
BRANCH   6  22
ATOM     22  C           0     135.224 129.908 146.731  0.00  0.00     0.208 C 
BRANCH  22  23
ATOM     23  O           0     134.993 128.495 146.967  0.00  0.00    -0.302 OA
BRANCH  23  24
ATOM     24  C           0     133.876 128.091 147.603  0.00  0.00     0.358 C 
ATOM     25  N           0     133.129 127.096 147.086  0.00  0.00    -0.346 N 
ATOM     26  H           0     133.395 126.670 146.256  0.00  0.00     0.161 HD
ATOM     27  H           0     132.324 126.806 147.544  0.00  0.00     0.161 HD
ATOM     28  O           0     133.543 128.625 148.642  0.00  0.00    -0.239 OA
ENDBRANCH  23  24
ENDBRANCH  22  23
ENDBRANCH   6  22
BRANCH  18  29
ATOM     29  O           0     136.051 134.659 146.074  0.00  0.00    -0.362 OA
ATOM     30  H           0     135.497 134.501 145.298  0.00  0.00     0.213 HD
ENDBRANCH  18  29
BRANCH  18  31
ATOM     31  O           0     135.210 132.835 147.289  0.00  0.00    -0.362 OA
ATOM     32  H           0     135.082 131.944 146.934  0.00  0.00     0.213 HD
ENDBRANCH  18  31
TORSDOF 5
ENDMDL
MODEL 9
REMARK VINA RESULT:      -6.4      7.973     10.351
REMARK  5 active torsions:
REMARK  status: ('A' for Active; 'I' for Inactive)
REMARK    1  A    between atoms: C_6  and  C_7 
REMARK    2  A    between atoms: C_7  and  O_8 
REMARK    3  A    between atoms: O_8  and  C_9 
REMARK       I    between atoms: C_9  and  N_10 
REMARK    4  A    between atoms: C_23  and  O_24 
REMARK    5  A    between atoms: C_23  and  O_25 
ROOT
ATOM      1  N           0     128.838 134.374 132.138  0.00  0.00    -0.235 N 
ATOM      2  H           0     128.108 133.989 131.630  0.00  0.00     0.174 HD
ATOM      3  H           0     129.013 135.328 132.088  0.00  0.00     0.174 HD
ATOM      4  C           0     129.581 133.614 132.892  0.00  0.00     0.672 C 
ATOM      5  N           0     129.369 132.251 133.001  0.00  0.00    -0.218 N 
ATOM      6  C           0     130.511 131.395 133.304  0.00  0.00     0.151 C 
ATOM      7  C           0     131.295 131.873 134.511  0.00  0.00     0.180 C 
ATOM      8  N           0     130.562 131.509 135.742  0.00  0.00    -0.216 N 
ATOM      9  C           0     130.680 132.559 136.620  0.00  0.00     0.670 C 
ATOM     10  N           0     130.485 132.465 137.905  0.00  0.00    -0.235 N 
ATOM     11  H           0     130.239 131.612 138.297  0.00  0.00     0.174 HD
ATOM     12  H           0     130.585 133.247 138.470  0.00  0.00     0.174 HD
ATOM     13  C           0     131.436 133.384 134.602  0.00  0.00     0.217 C 
ATOM     14  N           0     131.030 133.720 135.977  0.00  0.00    -0.191 N 
ATOM     15  N           0     130.627 134.112 133.625  0.00  0.00    -0.183 N 
ATOM     16  C           0     131.216 135.462 133.559  0.00  0.00     0.150 C 
ATOM     17  C           0     132.741 135.220 133.663  0.00  0.00     0.093 C 
ATOM     18  C           0     132.884 133.842 134.358  0.00  0.00     0.209 C 
ATOM     19  H           0     128.483 131.874 132.880  0.00  0.00     0.178 HD
ATOM     20  H           0     130.085 130.680 135.902  0.00  0.00     0.178 HD
ATOM     21  H           0     131.016 134.609 136.363  0.00  0.00     0.180 HD
ENDROOT
BRANCH   6  22
ATOM     22  C           0     131.443 131.366 132.091  0.00  0.00     0.208 C 
BRANCH  22  23
ATOM     23  O           0     132.513 130.415 132.324  0.00  0.00    -0.302 OA
BRANCH  23  24
ATOM     24  C           0     132.272 129.093 132.232  0.00  0.00     0.358 C 
ATOM     25  N           0     132.045 128.370 133.347  0.00  0.00    -0.346 N 
ATOM     26  H           0     132.057 128.802 134.216  0.00  0.00     0.161 HD
ATOM     27  H           0     131.872 127.418 133.281  0.00  0.00     0.161 HD
ATOM     28  O           0     132.257 128.552 131.144  0.00  0.00    -0.239 OA
ENDBRANCH  23  24
ENDBRANCH  22  23
ENDBRANCH   6  22
BRANCH  18  29
ATOM     29  O           0     133.585 133.979 135.595  0.00  0.00    -0.362 OA
ATOM     30  H           0     133.464 134.894 135.885  0.00  0.00     0.213 HD
ENDBRANCH  18  29
BRANCH  18  31
ATOM     31  O           0     133.559 132.920 133.500  0.00  0.00    -0.362 OA
ATOM     32  H           0     134.278 132.531 134.018  0.00  0.00     0.213 HD
ENDBRANCH  18  31
TORSDOF 5
ENDMDL
