MODEL 1
REMARK VINA RESULT:      -7.6      0.000      0.000
REMARK  12 active torsions:
REMARK  status: ('A' for Active; 'I' for Inactive)
REMARK    1  A    between atoms: N_8  and  C_9 
REMARK    2  A    between atoms: C_9  and  O_10 
REMARK    3  A    between atoms: O_10  and  C_11 
REMARK       I    between atoms: C_11  and  N_12 
REMARK    4  A    between atoms: N_12  and  O_13 
REMARK    5  A    between atoms: C_15  and  N_16 
REMARK    6  A    between atoms: C_23  and  O_24 
REMARK    7  A    between atoms: O_24  and  S_25 
REMARK    8  A    between atoms: S_25  and  O_26 
REMARK    9  A    between atoms: C_31  and  C_32 
REMARK   10  A    between atoms: C_32  and  O_33 
REMARK   11  A    between atoms: C_39  and  O_40 
REMARK   12  A    between atoms: C_39  and  O_41 
ROOT
ATOM      1  N           0     135.555 135.488 148.301  0.00  0.00    -0.235 N 
ATOM      2  H           0     134.739 135.913 148.606  0.00  0.00     0.174 HD
ATOM      3  H           0     136.412 135.774 148.653  0.00  0.00     0.174 HD
ATOM      4  C           0     135.499 134.528 147.420  0.00  0.00     0.672 C 
ATOM      5  N           0     134.304 134.057 146.869  0.00  0.00    -0.211 N 
ATOM      6  C           0     134.361 132.747 146.204  0.00  0.00     0.221 C 
ATOM      7  C           0     135.428 132.788 145.114  0.00  0.00     0.192 A 
ATOM      8  N           0     134.960 133.704 144.069  0.00  0.00    -0.185 N 
ATOM      9  C           0     135.862 134.714 143.876  0.00  0.00     0.674 A 
ATOM     10  C           0     136.743 133.390 145.562  0.00  0.00     0.221 A 
ATOM     11  N           0     136.928 134.575 144.715  0.00  0.00    -0.191 N 
ATOM     12  N           0     136.588 133.812 146.957  0.00  0.00    -0.180 N 
ATOM     13  C           0     137.738 133.334 147.721  0.00  0.00     0.190 C 
ATOM     14  C           0     138.416 132.225 146.911  0.00  0.00     0.161 C 
ATOM     15  C           0     138.197 130.781 147.342  0.00  0.00     0.075 C 
ATOM     16  C           0     136.915 130.601 148.155  0.00  0.00     0.129 C 
ATOM     17  C           0     136.563 129.110 148.285  0.00  0.00     0.061 C 
ATOM     18  C           0     135.873 128.771 146.954  0.00  0.00     0.210 C 
ATOM     19  O           0     135.821 130.012 146.216  0.00  0.00    -0.274 OA
ATOM     20  N           0     135.857 131.022 147.212  0.00  0.00    -0.219 N 
ATOM     21  C           0     135.074 132.097 147.362  0.00  0.00     0.269 C 
ATOM     22  O           0     134.895 132.509 148.494  0.00  0.00    -0.269 OA
ATOM     23  C           0     137.943 132.438 145.473  0.00  0.00     0.244 C 
ATOM     24  H           0     133.473 134.578 146.929  0.00  0.00     0.178 HD
ATOM     25  H           0     137.698 135.168 144.756  0.00  0.00     0.180 HD
ENDROOT
BRANCH   8  26
ATOM     26  C           0     133.697 133.556 143.329  0.00  0.00     0.325 C 
BRANCH  26  27
ATOM     27  O           0     133.983 133.360 141.919  0.00  0.00    -0.282 OA
BRANCH  27  28
ATOM     28  C           0     133.228 133.972 140.987  0.00  0.00     0.386 C 
ATOM     29  N           0     133.643 135.130 140.437  0.00  0.00    -0.213 N 
ATOM     30  H           0     134.485 135.524 140.713  0.00  0.00     0.199 HD
ATOM     31  O           0     132.171 133.479 140.642  0.00  0.00    -0.236 OA
BRANCH  29  32
ATOM     32  O           0     132.848 135.773 139.458  0.00  0.00    -0.285 OA
ATOM     33  H           0     132.125 136.212 139.928  0.00  0.00     0.244 HD
ENDBRANCH  29  32
ENDBRANCH  27  28
ENDBRANCH  26  27
ENDBRANCH   8  26
BRANCH   9  34
ATOM     34  N           0     135.719 135.682 143.006  0.00  0.00    -0.235 N 
ATOM     35  H           0     134.856 136.111 142.897  0.00  0.00     0.174 HD
ATOM     36  H           0     136.476 135.968 142.472  0.00  0.00     0.174 HD
ENDBRANCH   9  34
BRANCH  23  37
ATOM     37  O           0     137.595 131.221 144.829  0.00  0.00    -0.360 OA
ATOM     38  H           0     137.576 130.539 145.512  0.00  0.00     0.213 HD
ENDBRANCH  23  37
BRANCH  23  39
ATOM     39  O           0     138.989 133.083 144.726  0.00  0.00    -0.360 OA
ATOM     40  H           0     138.744 134.014 144.647  0.00  0.00     0.213 HD
ENDBRANCH  23  39
BRANCH  14  41
ATOM     41  O           0     139.831 132.479 146.942  0.00  0.00    -0.245 OA
BRANCH  41  42
ATOM     42  S           0     140.225 132.595 148.408  0.00  0.00     0.241 S 
ATOM     43  O           0     139.015 132.748 149.231  0.00  0.00    -0.579 OA
ATOM     44  O           0     140.948 131.382 148.820  0.00  0.00    -0.579 OA
BRANCH  42  45
ATOM     45  O           0     141.124 133.809 148.598  0.00  0.00    -0.274 OA
ATOM     46  H           0     142.035 133.489 148.572  0.00  0.00     0.234 HD
ENDBRANCH  42  45
ENDBRANCH  41  42
ENDBRANCH  14  41
BRANCH  17  47
ATOM     47  C           0     137.803 128.248 148.495  0.00  0.00     0.173 C 
BRANCH  47  48
ATOM     48  O           0     138.280 128.417 149.831  0.00  0.00    -0.400 OA
ATOM     49  H           0     138.538 127.541 150.149  0.00  0.00     0.209 HD
ENDBRANCH  47  48
ENDBRANCH  17  47
TORSDOF 12
ENDMDL
MODEL 2
REMARK VINA RESULT:      -7.4      1.484      1.955
REMARK  12 active torsions:
REMARK  status: ('A' for Active; 'I' for Inactive)
REMARK    1  A    between atoms: N_8  and  C_9 
REMARK    2  A    between atoms: C_9  and  O_10 
REMARK    3  A    between atoms: O_10  and  C_11 
REMARK       I    between atoms: C_11  and  N_12 
REMARK    4  A    between atoms: N_12  and  O_13 
REMARK    5  A    between atoms: C_15  and  N_16 
REMARK    6  A    between atoms: C_23  and  O_24 
REMARK    7  A    between atoms: O_24  and  S_25 
REMARK    8  A    between atoms: S_25  and  O_26 
REMARK    9  A    between atoms: C_31  and  C_32 
REMARK   10  A    between atoms: C_32  and  O_33 
REMARK   11  A    between atoms: C_39  and  O_40 
REMARK   12  A    between atoms: C_39  and  O_41 
ROOT
ATOM      1  N           0     136.691 135.649 148.478  0.00  0.00    -0.235 N 
ATOM      2  H           0     136.146 136.427 148.675  0.00  0.00     0.174 HD
ATOM      3  H           0     137.605 135.603 148.800  0.00  0.00     0.174 HD
ATOM      4  C           0     136.192 134.662 147.786  0.00  0.00     0.672 C 
ATOM      5  N           0     134.884 134.651 147.293  0.00  0.00    -0.211 N 
ATOM      6  C           0     134.351 133.345 146.880  0.00  0.00     0.221 C 
ATOM      7  C           0     135.281 132.735 145.835  0.00  0.00     0.192 A 
ATOM      8  N           0     135.192 133.561 144.627  0.00  0.00    -0.185 N 
ATOM      9  C           0     136.425 134.042 144.281  0.00  0.00     0.674 A 
ATOM     10  C           0     136.747 132.793 146.208  0.00  0.00     0.221 A 
ATOM     11  N           0     137.373 133.617 145.164  0.00  0.00    -0.191 N 
ATOM     12  N           0     136.853 133.483 147.497  0.00  0.00    -0.180 N 
ATOM     13  C           0     137.731 132.708 148.371  0.00  0.00     0.190 C 
ATOM     14  C           0     137.837 131.291 147.799  0.00  0.00     0.161 C 
ATOM     15  C           0     137.052 130.178 148.479  0.00  0.00     0.075 C 
ATOM     16  C           0     135.855 130.706 149.270  0.00  0.00     0.129 C 
ATOM     17  C           0     134.915 129.555 149.659  0.00  0.00     0.061 C 
ATOM     18  C           0     134.081 129.308 148.391  0.00  0.00     0.210 C 
ATOM     19  O           0     134.521 130.300 147.438  0.00  0.00    -0.274 OA
ATOM     20  N           0     135.028 131.360 148.234  0.00  0.00    -0.219 N 
ATOM     21  C           0     134.780 132.673 148.160  0.00  0.00     0.269 C 
ATOM     22  O           0     134.847 133.317 149.192  0.00  0.00    -0.269 OA
ATOM     23  C           0     137.428 131.424 146.331  0.00  0.00     0.244 C 
ATOM     24  H           0     134.355 135.477 147.230  0.00  0.00     0.178 HD
ATOM     25  H           0     138.321 133.825 145.122  0.00  0.00     0.180 HD
ENDROOT
BRANCH   8  26
ATOM     26  C           0     133.950 133.831 143.886  0.00  0.00     0.325 C 
BRANCH  26  27
ATOM     27  O           0     134.098 133.383 142.514  0.00  0.00    -0.282 OA
BRANCH  27  28
ATOM     28  C           0     133.513 134.070 141.514  0.00  0.00     0.386 C 
ATOM     29  N           0     133.930 135.317 141.218  0.00  0.00    -0.213 N 
ATOM     30  H           0     134.652 135.720 141.726  0.00  0.00     0.199 HD
ATOM     31  O           0     132.607 133.566 140.878  0.00  0.00    -0.236 OA
BRANCH  29  32
ATOM     32  O           0     133.314 136.039 140.168  0.00  0.00    -0.285 OA
ATOM     33  H           0     132.402 135.722 140.108  0.00  0.00     0.244 HD
ENDBRANCH  29  32
ENDBRANCH  27  28
ENDBRANCH  26  27
ENDBRANCH   8  26
BRANCH   9  34
ATOM     34  N           0     136.661 134.806 143.245  0.00  0.00    -0.235 N 
ATOM     35  H           0     136.198 134.644 142.409  0.00  0.00     0.174 HD
ATOM     36  H           0     137.298 135.534 143.315  0.00  0.00     0.174 HD
ENDBRANCH   9  34
BRANCH  23  37
ATOM     37  O           0     136.569 130.375 145.910  0.00  0.00    -0.360 OA
ATOM     38  H           0     137.099 129.568 145.895  0.00  0.00     0.213 HD
ENDBRANCH  23  37
BRANCH  23  39
ATOM     39  O           0     138.611 131.420 145.513  0.00  0.00    -0.360 OA
ATOM     40  H           0     138.592 132.232 144.989  0.00  0.00     0.213 HD
ENDBRANCH  23  39
BRANCH  14  41
ATOM     41  O           0     139.228 130.924 147.828  0.00  0.00    -0.245 OA
BRANCH  41  42
ATOM     42  S           0     139.296 129.503 148.367  0.00  0.00     0.241 S 
ATOM     43  O           0     140.643 128.955 148.141  0.00  0.00    -0.579 OA
ATOM     44  O           0     139.006 129.511 149.810  0.00  0.00    -0.579 OA
BRANCH  42  45
ATOM     45  O           0     138.269 128.638 147.650  0.00  0.00    -0.274 OA
ATOM     46  H           0     137.627 128.355 148.315  0.00  0.00     0.234 HD
ENDBRANCH  42  45
ENDBRANCH  41  42
ENDBRANCH  14  41
BRANCH  17  47
ATOM     47  C           0     135.685 128.301 150.062  0.00  0.00     0.173 C 
BRANCH  47  48
ATOM     48  O           0     135.225 127.192 149.289  0.00  0.00    -0.400 OA
ATOM     49  H           0     135.833 126.459 149.462  0.00  0.00     0.209 HD
ENDBRANCH  47  48
ENDBRANCH  17  47
TORSDOF 12
ENDMDL
MODEL 3
REMARK VINA RESULT:      -7.1      2.737      7.142
REMARK  12 active torsions:
REMARK  status: ('A' for Active; 'I' for Inactive)
REMARK    1  A    between atoms: N_8  and  C_9 
REMARK    2  A    between atoms: C_9  and  O_10 
REMARK    3  A    between atoms: O_10  and  C_11 
REMARK       I    between atoms: C_11  and  N_12 
REMARK    4  A    between atoms: N_12  and  O_13 
REMARK    5  A    between atoms: C_15  and  N_16 
REMARK    6  A    between atoms: C_23  and  O_24 
REMARK    7  A    between atoms: O_24  and  S_25 
REMARK    8  A    between atoms: S_25  and  O_26 
REMARK    9  A    between atoms: C_31  and  C_32 
REMARK   10  A    between atoms: C_32  and  O_33 
REMARK   11  A    between atoms: C_39  and  O_40 
REMARK   12  A    between atoms: C_39  and  O_41 
ROOT
ATOM      1  N           0     139.902 133.136 147.789  0.00  0.00    -0.235 N 
ATOM      2  H           0     140.813 132.811 147.727  0.00  0.00     0.174 HD
ATOM      3  H           0     139.730 134.064 148.014  0.00  0.00     0.174 HD
ATOM      4  C           0     138.904 132.325 147.565  0.00  0.00     0.672 C 
ATOM      5  N           0     139.069 130.977 147.231  0.00  0.00    -0.211 N 
ATOM      6  C           0     137.904 130.302 146.640  0.00  0.00     0.221 C 
ATOM      7  C           0     136.715 130.439 147.587  0.00  0.00     0.192 A 
ATOM      8  N           0     137.015 129.656 148.790  0.00  0.00    -0.185 N 
ATOM      9  C           0     136.972 130.450 149.903  0.00  0.00     0.674 A 
ATOM     10  C           0     136.504 131.843 148.111  0.00  0.00     0.221 A 
ATOM     11  N           0     136.668 131.736 149.567  0.00  0.00    -0.191 N 
ATOM     12  N           0     137.571 132.688 147.566  0.00  0.00    -0.180 N 
ATOM     13  C           0     136.973 133.912 147.037  0.00  0.00     0.190 C 
ATOM     14  C           0     135.475 133.660 146.841  0.00  0.00     0.161 C 
ATOM     15  C           0     134.963 133.425 145.426  0.00  0.00     0.075 C 
ATOM     16  C           0     136.056 132.924 144.483  0.00  0.00     0.129 C 
ATOM     17  C           0     135.442 132.392 143.179  0.00  0.00     0.061 C 
ATOM     18  C           0     134.976 130.971 143.537  0.00  0.00     0.210 C 
ATOM     19  O           0     135.373 130.766 144.910  0.00  0.00    -0.274 OA
ATOM     20  N           0     136.471 131.645 145.099  0.00  0.00    -0.219 N 
ATOM     21  C           0     137.673 131.402 145.635  0.00  0.00     0.269 C 
ATOM     22  O           0     138.614 132.064 145.232  0.00  0.00    -0.269 OA
ATOM     23  C           0     135.153 132.466 147.739  0.00  0.00     0.244 C 
ATOM     24  H           0     139.921 130.513 147.385  0.00  0.00     0.178 HD
ATOM     25  H           0     136.575 132.477 150.189  0.00  0.00     0.180 HD
ENDROOT
BRANCH   8  26
ATOM     26  C           0     137.317 128.216 148.800  0.00  0.00     0.325 C 
BRANCH  26  27
ATOM     27  O           0     138.679 128.010 149.259  0.00  0.00    -0.282 OA
BRANCH  27  28
ATOM     28  C           0     139.604 127.510 148.418  0.00  0.00     0.386 C 
ATOM     29  N           0     139.437 126.284 147.882  0.00  0.00    -0.213 N 
ATOM     30  H           0     138.650 125.762 148.103  0.00  0.00     0.199 HD
ATOM     31  O           0     140.591 128.164 148.142  0.00  0.00    -0.236 OA
BRANCH  29  32
ATOM     32  O           0     140.410 125.759 146.999  0.00  0.00    -0.285 OA
ATOM     33  H           0     140.692 124.910 147.367  0.00  0.00     0.244 HD
ENDBRANCH  29  32
ENDBRANCH  27  28
ENDBRANCH  26  27
ENDBRANCH   8  26
BRANCH   9  34
ATOM     34  N           0     137.193 130.030 151.124  0.00  0.00    -0.235 N 
ATOM     35  H           0     136.501 129.551 151.604  0.00  0.00     0.174 HD
ATOM     36  H           0     138.049 130.200 151.546  0.00  0.00     0.174 HD
ENDBRANCH   9  34
BRANCH  23  37
ATOM     37  O           0     134.302 131.522 147.104  0.00  0.00    -0.360 OA
ATOM     38  H           0     133.910 130.984 147.805  0.00  0.00     0.213 HD
ENDBRANCH  23  37
BRANCH  23  39
ATOM     39  O           0     134.516 132.940 148.939  0.00  0.00    -0.360 OA
ATOM     40  H           0     133.738 133.443 148.663  0.00  0.00     0.213 HD
ENDBRANCH  23  39
BRANCH  14  41
ATOM     41  O           0     134.779 134.802 147.373  0.00  0.00    -0.245 OA
BRANCH  41  42
ATOM     42  S           0     133.545 135.006 146.506  0.00  0.00     0.241 S 
ATOM     43  O           0     132.672 136.017 147.125  0.00  0.00    -0.579 OA
ATOM     44  O           0     133.954 135.464 145.169  0.00  0.00    -0.579 OA
BRANCH  42  45
ATOM     45  O           0     132.788 133.691 146.382  0.00  0.00    -0.274 OA
ATOM     46  H           0     133.323 133.018 146.824  0.00  0.00     0.234 HD
ENDBRANCH  42  45
ENDBRANCH  41  42
ENDBRANCH  14  41
BRANCH  17  47
ATOM     47  C           0     134.274 133.251 142.707  0.00  0.00     0.173 C 
BRANCH  47  48
ATOM     48  O           0     134.763 134.517 142.262  0.00  0.00    -0.400 OA
ATOM     49  H           0     135.037 134.403 141.341  0.00  0.00     0.209 HD
ENDBRANCH  47  48
ENDBRANCH  17  47
TORSDOF 12
ENDMDL
MODEL 4
REMARK VINA RESULT:      -7.1      3.180      6.270
REMARK  12 active torsions:
REMARK  status: ('A' for Active; 'I' for Inactive)
REMARK    1  A    between atoms: N_8  and  C_9 
REMARK    2  A    between atoms: C_9  and  O_10 
REMARK    3  A    between atoms: O_10  and  C_11 
REMARK       I    between atoms: C_11  and  N_12 
REMARK    4  A    between atoms: N_12  and  O_13 
REMARK    5  A    between atoms: C_15  and  N_16 
REMARK    6  A    between atoms: C_23  and  O_24 
REMARK    7  A    between atoms: O_24  and  S_25 
REMARK    8  A    between atoms: S_25  and  O_26 
REMARK    9  A    between atoms: C_31  and  C_32 
REMARK   10  A    between atoms: C_32  and  O_33 
REMARK   11  A    between atoms: C_39  and  O_40 
REMARK   12  A    between atoms: C_39  and  O_41 
ROOT
ATOM      1  N           0     138.475 130.925 150.130  0.00  0.00    -0.235 N 
ATOM      2  H           0     139.078 130.212 150.391  0.00  0.00     0.174 HD
ATOM      3  H           0     138.514 131.784 150.580  0.00  0.00     0.174 HD
ATOM      4  C           0     137.614 130.732 149.169  0.00  0.00     0.672 C 
ATOM      5  N           0     137.500 129.527 148.468  0.00  0.00    -0.211 N 
ATOM      6  C           0     136.779 129.580 147.189  0.00  0.00     0.221 C 
ATOM      7  C           0     135.383 130.151 147.426  0.00  0.00     0.192 A 
ATOM      8  N           0     134.635 129.175 148.224  0.00  0.00    -0.185 N 
ATOM      9  C           0     134.195 129.742 149.388  0.00  0.00     0.674 A 
ATOM     10  C           0     135.367 131.403 148.277  0.00  0.00     0.221 A 
ATOM     11  N           0     134.585 131.045 149.467  0.00  0.00    -0.191 N 
ATOM     12  N           0     136.749 131.690 148.674  0.00  0.00    -0.180 N 
ATOM     13  C           0     137.019 133.106 148.437  0.00  0.00     0.190 C 
ATOM     14  C           0     135.953 133.636 147.473  0.00  0.00     0.161 C 
ATOM     15  C           0     136.344 133.860 146.018  0.00  0.00     0.075 C 
ATOM     16  C           0     137.549 133.018 145.600  0.00  0.00     0.129 C 
ATOM     17  C           0     137.704 133.020 144.071  0.00  0.00     0.061 C 
ATOM     18  C           0     136.690 131.968 143.591  0.00  0.00     0.210 C 
ATOM     19  O           0     136.098 131.423 144.790  0.00  0.00    -0.274 OA
ATOM     20  N           0     137.076 131.631 145.797  0.00  0.00    -0.219 N 
ATOM     21  C           0     137.562 130.772 146.701  0.00  0.00     0.269 C 
ATOM     22  O           0     138.707 130.944 147.082  0.00  0.00    -0.269 OA
ATOM     23  C           0     134.796 132.642 147.576  0.00  0.00     0.244 C 
ATOM     24  H           0     137.885 128.694 148.819  0.00  0.00     0.178 HD
ATOM     25  H           0     134.385 131.654 150.199  0.00  0.00     0.180 HD
ENDROOT
BRANCH   8  26
ATOM     26  C           0     134.388 127.780 147.826  0.00  0.00     0.325 C 
BRANCH  26  27
ATOM     27  O           0     133.203 127.718 146.990  0.00  0.00    -0.282 OA
BRANCH  27  28
ATOM     28  C           0     132.053 127.223 147.487  0.00  0.00     0.386 C 
ATOM     29  N           0     131.696 125.951 147.222  0.00  0.00    -0.213 N 
ATOM     30  H           0     132.267 125.392 146.672  0.00  0.00     0.199 HD
ATOM     31  O           0     131.338 127.924 148.176  0.00  0.00    -0.236 OA
BRANCH  29  32
ATOM     32  O           0     130.487 125.431 147.744  0.00  0.00    -0.285 OA
ATOM     33  H           0     129.768 125.839 147.242  0.00  0.00     0.244 HD
ENDBRANCH  29  32
ENDBRANCH  27  28
ENDBRANCH  26  27
ENDBRANCH   8  26
BRANCH   9  34
ATOM     34  N           0     133.495 129.116 150.301  0.00  0.00    -0.235 N 
ATOM     35  H           0     133.378 129.513 151.178  0.00  0.00     0.174 HD
ATOM     36  H           0     133.095 128.256 150.099  0.00  0.00     0.174 HD
ENDBRANCH   9  34
BRANCH  23  37
ATOM     37  O           0     134.245 132.316 146.309  0.00  0.00    -0.360 OA
ATOM     38  H           0     134.711 132.853 145.654  0.00  0.00     0.213 HD
ENDBRANCH  23  37
BRANCH  23  39
ATOM     39  O           0     133.765 133.207 148.405  0.00  0.00    -0.360 OA
ATOM     40  H           0     133.019 133.411 147.825  0.00  0.00     0.213 HD
ENDBRANCH  23  39
BRANCH  14  41
ATOM     41  O           0     135.491 134.893 147.998  0.00  0.00    -0.245 OA
BRANCH  41  42
ATOM     42  S           0     136.377 135.223 149.191  0.00  0.00     0.241 S 
ATOM     43  O           0     136.015 134.359 150.326  0.00  0.00    -0.579 OA
ATOM     44  O           0     137.786 134.997 148.834  0.00  0.00    -0.579 OA
BRANCH  42  45
ATOM     45  O           0     136.181 136.681 149.581  0.00  0.00    -0.274 OA
ATOM     46  H           0     136.628 137.213 148.909  0.00  0.00     0.234 HD
ENDBRANCH  42  45
ENDBRANCH  41  42
ENDBRANCH  14  41
BRANCH  17  47
ATOM     47  C           0     137.402 134.388 143.468  0.00  0.00     0.173 C 
BRANCH  47  48
ATOM     48  O           0     138.115 134.535 142.240  0.00  0.00    -0.400 OA
ATOM     49  H           0     137.455 134.549 141.533  0.00  0.00     0.209 HD
ENDBRANCH  47  48
ENDBRANCH  17  47
TORSDOF 12
ENDMDL
MODEL 5
REMARK VINA RESULT:      -7.0      1.867      2.661
REMARK  12 active torsions:
REMARK  status: ('A' for Active; 'I' for Inactive)
REMARK    1  A    between atoms: N_8  and  C_9 
REMARK    2  A    between atoms: C_9  and  O_10 
REMARK    3  A    between atoms: O_10  and  C_11 
REMARK       I    between atoms: C_11  and  N_12 
REMARK    4  A    between atoms: N_12  and  O_13 
REMARK    5  A    between atoms: C_15  and  N_16 
REMARK    6  A    between atoms: C_23  and  O_24 
REMARK    7  A    between atoms: O_24  and  S_25 
REMARK    8  A    between atoms: S_25  and  O_26 
REMARK    9  A    between atoms: C_31  and  C_32 
REMARK   10  A    between atoms: C_32  and  O_33 
REMARK   11  A    between atoms: C_39  and  O_40 
REMARK   12  A    between atoms: C_39  and  O_41 
ROOT
ATOM      1  N           0     134.425 136.143 144.706  0.00  0.00    -0.235 N 
ATOM      2  H           0     133.570 136.596 144.764  0.00  0.00     0.174 HD
ATOM      3  H           0     135.244 136.626 144.902  0.00  0.00     0.174 HD
ATOM      4  C           0     134.476 134.884 144.370  0.00  0.00     0.672 C 
ATOM      5  N           0     133.342 134.119 144.078  0.00  0.00    -0.211 N 
ATOM      6  C           0     133.514 132.660 144.097  0.00  0.00     0.221 C 
ATOM      7  C           0     134.633 132.277 143.132  0.00  0.00     0.192 A 
ATOM      8  N           0     134.166 132.569 141.774  0.00  0.00    -0.185 N 
ATOM      9  C           0     135.014 133.444 141.151  0.00  0.00     0.674 A 
ATOM     10  C           0     135.884 133.119 143.275  0.00  0.00     0.221 A 
ATOM     11  N           0     136.040 133.791 141.978  0.00  0.00    -0.191 N 
ATOM     12  N           0     135.629 134.124 144.312  0.00  0.00    -0.180 N 
ATOM     13  C           0     136.764 134.144 145.232  0.00  0.00     0.190 C 
ATOM     14  C           0     137.550 132.843 145.041  0.00  0.00     0.161 C 
ATOM     15  C           0     137.398 131.749 146.089  0.00  0.00     0.075 C 
ATOM     16  C           0     136.088 131.863 146.868  0.00  0.00     0.129 C 
ATOM     17  C           0     135.822 130.578 147.668  0.00  0.00     0.061 C 
ATOM     18  C           0     135.225 129.610 146.633  0.00  0.00     0.210 C 
ATOM     19  O           0     135.136 130.363 145.404  0.00  0.00    -0.274 OA
ATOM     20  N           0     135.057 131.717 145.818  0.00  0.00    -0.219 N 
ATOM     21  C           0     134.204 132.675 145.438  0.00  0.00     0.269 C 
ATOM     22  O           0     133.940 133.548 146.246  0.00  0.00    -0.269 OA
ATOM     23  C           0     137.142 132.332 143.660  0.00  0.00     0.244 C 
ATOM     24  H           0     132.479 134.542 143.874  0.00  0.00     0.178 HD
ATOM     25  H           0     136.769 134.395 141.755  0.00  0.00     0.180 HD
ENDROOT
BRANCH   8  26
ATOM     26  C           0     132.956 131.997 141.163  0.00  0.00     0.325 C 
BRANCH  26  27
ATOM     27  O           0     132.046 133.068 140.797  0.00  0.00    -0.282 OA
BRANCH  27  28
ATOM     28  C           0     131.706 133.252 139.508  0.00  0.00     0.386 C 
ATOM     29  N           0     130.723 132.512 138.957  0.00  0.00    -0.213 N 
ATOM     30  H           0     130.260 131.847 139.490  0.00  0.00     0.199 HD
ATOM     31  O           0     132.286 134.085 138.839  0.00  0.00    -0.236 OA
BRANCH  29  32
ATOM     32  O           0     130.366 132.706 137.601  0.00  0.00    -0.285 OA
ATOM     33  H           0     130.365 133.661 137.446  0.00  0.00     0.244 HD
ENDBRANCH  29  32
ENDBRANCH  27  28
ENDBRANCH  26  27
ENDBRANCH   8  26
BRANCH   9  34
ATOM     34  N           0     134.858 133.887 139.929  0.00  0.00    -0.235 N 
ATOM     35  H           0     134.146 133.534 139.373  0.00  0.00     0.174 HD
ATOM     36  H           0     135.455 134.567 139.581  0.00  0.00     0.174 HD
ENDBRANCH   9  34
BRANCH  23  37
ATOM     37  O           0     136.904 130.932 143.647  0.00  0.00    -0.360 OA
ATOM     38  H           0     136.228 130.769 142.976  0.00  0.00     0.213 HD
ENDBRANCH  23  37
BRANCH  23  39
ATOM     39  O           0     138.185 132.639 142.718  0.00  0.00    -0.360 OA
ATOM     40  H           0     138.220 133.602 142.643  0.00  0.00     0.213 HD
ENDBRANCH  23  39
BRANCH  14  41
ATOM     41  O           0     138.944 133.194 144.977  0.00  0.00    -0.245 OA
BRANCH  41  42
ATOM     42  S           0     139.688 132.204 145.863  0.00  0.00     0.241 S 
ATOM     43  O           0     139.175 130.847 145.620  0.00  0.00    -0.579 OA
ATOM     44  O           0     141.125 132.249 145.550  0.00  0.00    -0.579 OA
BRANCH  42  45
ATOM     45  O           0     139.476 132.573 147.324  0.00  0.00    -0.274 OA
ATOM     46  H           0     140.029 133.345 147.502  0.00  0.00     0.234 HD
ENDBRANCH  42  45
ENDBRANCH  41  42
ENDBRANCH  14  41
BRANCH  17  47
ATOM     47  C           0     137.099 130.011 148.277  0.00  0.00     0.173 C 
BRANCH  47  48
ATOM     48  O           0     137.556 128.912 147.487  0.00  0.00    -0.400 OA
ATOM     49  H           0     137.689 128.169 148.091  0.00  0.00     0.209 HD
ENDBRANCH  47  48
ENDBRANCH  17  47
TORSDOF 12
ENDMDL
MODEL 6
REMARK VINA RESULT:      -6.9      2.794      7.007
REMARK  12 active torsions:
REMARK  status: ('A' for Active; 'I' for Inactive)
REMARK    1  A    between atoms: N_8  and  C_9 
REMARK    2  A    between atoms: C_9  and  O_10 
REMARK    3  A    between atoms: O_10  and  C_11 
REMARK       I    between atoms: C_11  and  N_12 
REMARK    4  A    between atoms: N_12  and  O_13 
REMARK    5  A    between atoms: C_15  and  N_16 
REMARK    6  A    between atoms: C_23  and  O_24 
REMARK    7  A    between atoms: O_24  and  S_25 
REMARK    8  A    between atoms: S_25  and  O_26 
REMARK    9  A    between atoms: C_31  and  C_32 
REMARK   10  A    between atoms: C_32  and  O_33 
REMARK   11  A    between atoms: C_39  and  O_40 
REMARK   12  A    between atoms: C_39  and  O_41 
ROOT
ATOM      1  N           0     136.854 128.929 146.996  0.00  0.00    -0.235 N 
ATOM      2  H           0     137.063 128.332 147.731  0.00  0.00     0.174 HD
ATOM      3  H           0     136.515 128.571 146.160  0.00  0.00     0.174 HD
ATOM      4  C           0     137.025 130.215 147.132  0.00  0.00     0.672 C 
ATOM      5  N           0     137.504 130.808 148.305  0.00  0.00    -0.211 N 
ATOM      6  C           0     137.280 132.253 148.446  0.00  0.00     0.221 C 
ATOM      7  C           0     137.885 132.972 147.243  0.00  0.00     0.192 A 
ATOM      8  N           0     139.341 132.821 147.324  0.00  0.00    -0.185 N 
ATOM      9  C           0     139.825 132.216 146.196  0.00  0.00     0.674 A 
ATOM     10  C           0     137.529 132.347 145.910  0.00  0.00     0.221 A 
ATOM     11  N           0     138.811 131.926 145.332  0.00  0.00    -0.191 N 
ATOM     12  N           0     136.707 131.163 146.178  0.00  0.00    -0.180 N 
ATOM     13  C           0     135.540 131.195 145.299  0.00  0.00     0.190 C 
ATOM     14  C           0     135.382 132.626 144.775  0.00  0.00     0.161 C 
ATOM     15  C           0     134.291 133.498 145.381  0.00  0.00     0.075 C 
ATOM     16  C           0     133.882 133.037 146.780  0.00  0.00     0.129 C 
ATOM     17  C           0     133.036 134.113 147.478  0.00  0.00     0.061 C 
ATOM     18  C           0     134.073 135.114 148.014  0.00  0.00     0.210 C 
ATOM     19  O           0     135.361 134.561 147.668  0.00  0.00    -0.274 OA
ATOM     20  N           0     135.133 133.165 147.557  0.00  0.00    -0.219 N 
ATOM     21  C           0     135.820 132.146 148.087  0.00  0.00     0.269 C 
ATOM     22  O           0     135.205 131.125 148.339  0.00  0.00    -0.269 OA
ATOM     23  C           0     136.756 133.270 144.960  0.00  0.00     0.244 C 
ATOM     24  H           0     137.964 130.279 148.994  0.00  0.00     0.178 HD
ATOM     25  H           0     138.911 131.501 144.464  0.00  0.00     0.180 HD
ENDROOT
BRANCH   8  26
ATOM     26  C           0     140.168 133.263 148.457  0.00  0.00     0.325 C 
BRANCH  26  27
ATOM     27  O           0     141.097 132.208 148.820  0.00  0.00    -0.282 OA
BRANCH  27  28
ATOM     28  C           0     140.656 131.122 149.482  0.00  0.00     0.386 C 
ATOM     29  N           0     141.001 129.889 149.060  0.00  0.00    -0.213 N 
ATOM     30  H           0     141.565 129.784 148.278  0.00  0.00     0.199 HD
ATOM     31  O           0     139.948 131.253 150.461  0.00  0.00    -0.236 OA
BRANCH  29  32
ATOM     32  O           0     140.537 128.747 149.757  0.00  0.00    -0.285 OA
ATOM     33  H           0     139.587 128.681 149.584  0.00  0.00     0.244 HD
ENDBRANCH  29  32
ENDBRANCH  27  28
ENDBRANCH  26  27
ENDBRANCH   8  26
BRANCH   9  34
ATOM     34  N           0     141.089 131.951 145.979  0.00  0.00    -0.235 N 
ATOM     35  H           0     141.771 132.354 146.539  0.00  0.00     0.174 HD
ATOM     36  H           0     141.341 131.353 145.259  0.00  0.00     0.174 HD
ENDBRANCH   9  34
BRANCH  23  37
ATOM     37  O           0     136.672 134.592 145.473  0.00  0.00    -0.360 OA
ATOM     38  H           0     137.045 135.177 144.800  0.00  0.00     0.213 HD
ENDBRANCH  23  37
BRANCH  23  39
ATOM     39  O           0     137.434 133.301 143.692  0.00  0.00    -0.360 OA
ATOM     40  H           0     137.760 132.406 143.527  0.00  0.00     0.213 HD
ENDBRANCH  23  39
BRANCH  14  41
ATOM     41  O           0     135.134 132.536 143.361  0.00  0.00    -0.245 OA
BRANCH  41  42
ATOM     42  S           0     134.239 133.712 142.997  0.00  0.00     0.241 S 
ATOM     43  O           0     134.814 134.954 143.538  0.00  0.00    -0.579 OA
ATOM     44  O           0     134.137 133.817 141.533  0.00  0.00    -0.579 OA
BRANCH  42  45
ATOM     45  O           0     132.852 133.496 143.586  0.00  0.00    -0.274 OA
ATOM     46  H           0     132.611 134.313 144.044  0.00  0.00     0.234 HD
ENDBRANCH  42  45
ENDBRANCH  41  42
ENDBRANCH  14  41
BRANCH  17  47
ATOM     47  C           0     132.067 134.791 146.514  0.00  0.00     0.173 C 
BRANCH  47  48
ATOM     48  O           0     131.017 133.882 146.179  0.00  0.00    -0.400 OA
ATOM     49  H           0     130.297 134.044 146.804  0.00  0.00     0.209 HD
ENDBRANCH  47  48
ENDBRANCH  17  47
TORSDOF 12
ENDMDL
MODEL 7
REMARK VINA RESULT:      -6.9      2.648      4.426
REMARK  12 active torsions:
REMARK  status: ('A' for Active; 'I' for Inactive)
REMARK    1  A    between atoms: N_8  and  C_9 
REMARK    2  A    between atoms: C_9  and  O_10 
REMARK    3  A    between atoms: O_10  and  C_11 
REMARK       I    between atoms: C_11  and  N_12 
REMARK    4  A    between atoms: N_12  and  O_13 
REMARK    5  A    between atoms: C_15  and  N_16 
REMARK    6  A    between atoms: C_23  and  O_24 
REMARK    7  A    between atoms: O_24  and  S_25 
REMARK    8  A    between atoms: S_25  and  O_26 
REMARK    9  A    between atoms: C_31  and  C_32 
REMARK   10  A    between atoms: C_32  and  O_33 
REMARK   11  A    between atoms: C_39  and  O_40 
REMARK   12  A    between atoms: C_39  and  O_41 
ROOT
ATOM      1  N           0     140.037 131.057 146.152  0.00  0.00    -0.235 N 
ATOM      2  H           0     140.851 131.583 146.132  0.00  0.00     0.174 HD
ATOM      3  H           0     140.085 130.088 146.157  0.00  0.00     0.174 HD
ATOM      4  C           0     138.876 131.652 146.177  0.00  0.00     0.672 C 
ATOM      5  N           0     138.723 133.042 146.177  0.00  0.00    -0.211 N 
ATOM      6  C           0     137.410 133.556 146.591  0.00  0.00     0.221 C 
ATOM      7  C           0     136.331 132.937 145.707  0.00  0.00     0.192 A 
ATOM      8  N           0     136.514 133.463 144.351  0.00  0.00    -0.185 N 
ATOM      9  C           0     136.703 132.442 143.461  0.00  0.00     0.674 A 
ATOM     10  C           0     136.460 131.438 145.536  0.00  0.00     0.221 A 
ATOM     11  N           0     136.672 131.236 144.096  0.00  0.00    -0.191 N 
ATOM     12  N           0     137.656 131.007 146.266  0.00  0.00    -0.180 N 
ATOM     13  C           0     137.315 129.840 147.075  0.00  0.00     0.190 C 
ATOM     14  C           0     135.790 129.786 147.208  0.00  0.00     0.161 C 
ATOM     15  C           0     135.165 130.225 148.526  0.00  0.00     0.075 C 
ATOM     16  C           0     136.072 131.166 149.318  0.00  0.00     0.129 C 
ATOM     17  C           0     135.289 131.837 150.458  0.00  0.00     0.061 C 
ATOM     18  C           0     134.542 132.991 149.770  0.00  0.00     0.210 C 
ATOM     19  O           0     134.956 132.953 148.388  0.00  0.00    -0.274 OA
ATOM     20  N           0     136.228 132.325 148.413  0.00  0.00    -0.219 N 
ATOM     21  C           0     137.374 132.700 147.832  0.00  0.00     0.269 C 
ATOM     22  O           0     138.414 132.380 148.379  0.00  0.00    -0.269 OA
ATOM     23  C           0     135.260 130.632 146.050  0.00  0.00     0.244 C 
ATOM     24  H           0     139.459 133.637 145.914  0.00  0.00     0.178 HD
ATOM     25  H           0     136.776 130.368 143.671  0.00  0.00     0.180 HD
ENDROOT
BRANCH   8  26
ATOM     26  C           0     136.493 134.891 143.995  0.00  0.00     0.325 C 
BRANCH  26  27
ATOM     27  O           0     135.178 135.440 144.274  0.00  0.00    -0.282 OA
BRANCH  27  28
ATOM     28  C           0     134.409 135.888 143.264  0.00  0.00     0.386 C 
ATOM     29  N           0     134.433 135.266 142.069  0.00  0.00    -0.213 N 
ATOM     30  H           0     135.006 134.495 141.936  0.00  0.00     0.199 HD
ATOM     31  O           0     133.691 136.855 143.431  0.00  0.00    -0.236 OA
BRANCH  29  32
ATOM     32  O           0     133.624 135.739 141.008  0.00  0.00    -0.285 OA
ATOM     33  H           0     134.020 135.413 140.188  0.00  0.00     0.244 HD
ENDBRANCH  29  32
ENDBRANCH  27  28
ENDBRANCH  26  27
ENDBRANCH   8  26
BRANCH   9  34
ATOM     34  N           0     136.891 132.602 142.175  0.00  0.00    -0.235 N 
ATOM     35  H           0     136.263 133.128 141.656  0.00  0.00     0.174 HD
ATOM     36  H           0     137.658 132.195 141.743  0.00  0.00     0.174 HD
ENDBRANCH   9  34
BRANCH  23  37
ATOM     37  O           0     134.192 131.482 146.441  0.00  0.00    -0.360 OA
ATOM     38  H           0     134.055 132.110 145.719  0.00  0.00     0.213 HD
ENDBRANCH  23  37
BRANCH  23  39
ATOM     39  O           0     134.806 129.760 145.000  0.00  0.00    -0.360 OA
ATOM     40  H           0     135.516 129.714 144.347  0.00  0.00     0.213 HD
ENDBRANCH  23  39
BRANCH  14  41
ATOM     41  O           0     135.389 128.426 146.967  0.00  0.00    -0.245 OA
BRANCH  41  42
ATOM     42  S           0     134.254 128.124 147.935  0.00  0.00     0.241 S 
ATOM     43  O           0     133.420 127.040 147.391  0.00  0.00    -0.579 OA
ATOM     44  O           0     134.812 127.709 149.232  0.00  0.00    -0.579 OA
BRANCH  42  45
ATOM     45  O           0     133.404 129.372 148.125  0.00  0.00    -0.274 OA
ATOM     46  H           0     133.703 130.017 147.471  0.00  0.00     0.234 HD
ENDBRANCH  42  45
ENDBRANCH  41  42
ENDBRANCH  14  41
BRANCH  17  47
ATOM     47  C           0     134.314 130.872 151.125  0.00  0.00     0.173 C 
BRANCH  47  48
ATOM     48  O           0     132.979 131.205 150.744  0.00  0.00    -0.400 OA
ATOM     49  H           0     132.861 132.147 150.933  0.00  0.00     0.209 HD
ENDBRANCH  47  48
ENDBRANCH  17  47
TORSDOF 12
ENDMDL
MODEL 8
REMARK VINA RESULT:      -6.8      2.779      6.710
REMARK  12 active torsions:
REMARK  status: ('A' for Active; 'I' for Inactive)
REMARK    1  A    between atoms: N_8  and  C_9 
REMARK    2  A    between atoms: C_9  and  O_10 
REMARK    3  A    between atoms: O_10  and  C_11 
REMARK       I    between atoms: C_11  and  N_12 
REMARK    4  A    between atoms: N_12  and  O_13 
REMARK    5  A    between atoms: C_15  and  N_16 
REMARK    6  A    between atoms: C_23  and  O_24 
REMARK    7  A    between atoms: O_24  and  S_25 
REMARK    8  A    between atoms: S_25  and  O_26 
REMARK    9  A    between atoms: C_31  and  C_32 
REMARK   10  A    between atoms: C_32  and  O_33 
REMARK   11  A    between atoms: C_39  and  O_40 
REMARK   12  A    between atoms: C_39  and  O_41 
ROOT
ATOM      1  N           0     139.622 133.292 147.805  0.00  0.00    -0.235 N 
ATOM      2  H           0     140.535 132.965 147.785  0.00  0.00     0.174 HD
ATOM      3  H           0     139.445 134.225 147.999  0.00  0.00     0.174 HD
ATOM      4  C           0     138.632 132.476 147.565  0.00  0.00     0.672 C 
ATOM      5  N           0     138.806 131.120 147.273  0.00  0.00    -0.211 N 
ATOM      6  C           0     137.662 130.432 146.657  0.00  0.00     0.221 C 
ATOM      7  C           0     136.440 130.594 147.556  0.00  0.00     0.192 A 
ATOM      8  N           0     136.694 129.842 148.789  0.00  0.00    -0.185 N 
ATOM      9  C           0     136.612 130.664 149.879  0.00  0.00     0.674 A 
ATOM     10  C           0     136.212 132.012 148.036  0.00  0.00     0.221 A 
ATOM     11  N           0     136.323 131.942 149.499  0.00  0.00    -0.191 N 
ATOM     12  N           0     137.300 132.841 147.508  0.00  0.00    -0.180 N 
ATOM     13  C           0     136.725 134.051 146.926  0.00  0.00     0.190 C 
ATOM     14  C           0     135.235 133.797 146.682  0.00  0.00     0.161 C 
ATOM     15  C           0     134.774 133.526 145.256  0.00  0.00     0.075 C 
ATOM     16  C           0     135.900 132.999 144.367  0.00  0.00     0.129 C 
ATOM     17  C           0     135.333 132.434 143.055  0.00  0.00     0.061 C 
ATOM     18  C           0     134.850 131.023 143.433  0.00  0.00     0.210 C 
ATOM     19  O           0     135.197 130.854 144.824  0.00  0.00    -0.274 OA
ATOM     20  N           0     136.289 131.736 145.030  0.00  0.00    -0.219 N 
ATOM     21  C           0     137.471 131.505 145.616  0.00  0.00     0.269 C 
ATOM     22  O           0     138.426 132.155 145.231  0.00  0.00    -0.269 OA
ATOM     23  C           0     134.877 132.626 147.599  0.00  0.00     0.244 C 
ATOM     24  H           0     139.651 130.659 147.469  0.00  0.00     0.178 HD
ATOM     25  H           0     136.209 132.699 150.097  0.00  0.00     0.180 HD
ENDROOT
BRANCH   8  26
ATOM     26  C           0     136.992 128.403 148.847  0.00  0.00     0.325 C 
BRANCH  26  27
ATOM     27  O           0     135.895 127.707 149.494  0.00  0.00    -0.282 OA
BRANCH  27  28
ATOM     28  C           0     134.624 127.982 149.146  0.00  0.00     0.386 C 
ATOM     29  N           0     134.242 127.887 147.857  0.00  0.00    -0.213 N 
ATOM     30  H           0     134.884 127.621 147.180  0.00  0.00     0.199 HD
ATOM     31  O           0     133.820 128.316 149.994  0.00  0.00    -0.236 OA
BRANCH  29  32
ATOM     32  O           0     132.906 128.177 147.491  0.00  0.00    -0.285 OA
ATOM     33  H           0     132.858 128.103 146.527  0.00  0.00     0.244 HD
ENDBRANCH  29  32
ENDBRANCH  27  28
ENDBRANCH  26  27
ENDBRANCH   8  26
BRANCH   9  34
ATOM     34  N           0     136.788 130.277 151.117  0.00  0.00    -0.235 N 
ATOM     35  H           0     137.673 130.031 151.426  0.00  0.00     0.174 HD
ATOM     36  H           0     136.032 130.235 151.723  0.00  0.00     0.174 HD
ENDBRANCH   9  34
BRANCH  23  37
ATOM     37  O           0     134.048 131.667 146.958  0.00  0.00    -0.360 OA
ATOM     38  H           0     134.318 131.640 146.030  0.00  0.00     0.213 HD
ENDBRANCH  23  37
BRANCH  23  39
ATOM     39  O           0     134.198 133.132 148.761  0.00  0.00    -0.360 OA
ATOM     40  H           0     134.202 132.423 149.418  0.00  0.00     0.213 HD
ENDBRANCH  23  39
BRANCH  14  41
ATOM     41  O           0     134.522 134.952 147.159  0.00  0.00    -0.245 OA
BRANCH  41  42
ATOM     42  S           0     133.340 135.156 146.222  0.00  0.00     0.241 S 
ATOM     43  O           0     132.401 136.120 146.818  0.00  0.00    -0.579 OA
ATOM     44  O           0     133.821 135.675 144.931  0.00  0.00    -0.579 OA
BRANCH  42  45
ATOM     45  O           0     132.632 133.827 146.001  0.00  0.00    -0.274 OA
ATOM     46  H           0     132.147 133.903 145.168  0.00  0.00     0.234 HD
ENDBRANCH  42  45
ENDBRANCH  41  42
ENDBRANCH  14  41
BRANCH  17  47
ATOM     47  C           0     134.184 133.282 142.519  0.00  0.00     0.173 C 
BRANCH  47  48
ATOM     48  O           0     134.687 134.549 142.093  0.00  0.00    -0.400 OA
ATOM     49  H           0     134.000 135.202 142.289  0.00  0.00     0.209 HD
ENDBRANCH  47  48
ENDBRANCH  17  47
TORSDOF 12
ENDMDL
MODEL 9
REMARK VINA RESULT:      -6.8      2.963      7.018
REMARK  12 active torsions:
REMARK  status: ('A' for Active; 'I' for Inactive)
REMARK    1  A    between atoms: N_8  and  C_9 
REMARK    2  A    between atoms: C_9  and  O_10 
REMARK    3  A    between atoms: O_10  and  C_11 
REMARK       I    between atoms: C_11  and  N_12 
REMARK    4  A    between atoms: N_12  and  O_13 
REMARK    5  A    between atoms: C_15  and  N_16 
REMARK    6  A    between atoms: C_23  and  O_24 
REMARK    7  A    between atoms: O_24  and  S_25 
REMARK    8  A    between atoms: S_25  and  O_26 
REMARK    9  A    between atoms: C_31  and  C_32 
REMARK   10  A    between atoms: C_32  and  O_33 
REMARK   11  A    between atoms: C_39  and  O_40 
REMARK   12  A    between atoms: C_39  and  O_41 
ROOT
ATOM      1  N           0     133.495 134.131 148.266  0.00  0.00    -0.235 N 
ATOM      2  H           0     133.423 134.779 148.983  0.00  0.00     0.174 HD
ATOM      3  H           0     132.792 134.061 147.601  0.00  0.00     0.174 HD
ATOM      4  C           0     134.542 133.355 148.192  0.00  0.00     0.672 C 
ATOM      5  N           0     135.599 133.399 149.107  0.00  0.00    -0.211 N 
ATOM      6  C           0     136.854 132.760 148.687  0.00  0.00     0.221 C 
ATOM      7  C           0     136.575 131.305 148.319  0.00  0.00     0.192 A 
ATOM      8  N           0     136.203 130.601 149.550  0.00  0.00    -0.185 N 
ATOM      9  C           0     134.963 130.035 149.425  0.00  0.00     0.674 A 
ATOM     10  C           0     135.373 131.119 147.417  0.00  0.00     0.221 A 
ATOM     11  N           0     134.436 130.298 148.195  0.00  0.00    -0.191 N 
ATOM     12  N           0     134.780 132.439 147.184  0.00  0.00    -0.180 N 
ATOM     13  C           0     134.527 132.592 145.754  0.00  0.00     0.190 C 
ATOM     14  C           0     135.363 131.546 145.010  0.00  0.00     0.161 C 
ATOM     15  C           0     136.627 132.007 144.299  0.00  0.00     0.075 C 
ATOM     16  C           0     137.182 133.309 144.876  0.00  0.00     0.129 C 
ATOM     17  C           0     138.609 133.562 144.365  0.00  0.00     0.061 C 
ATOM     18  C           0     139.490 132.682 145.267  0.00  0.00     0.210 C 
ATOM     19  O           0     138.588 132.068 146.211  0.00  0.00    -0.274 OA
ATOM     20  N           0     137.482 132.955 146.279  0.00  0.00    -0.219 N 
ATOM     21  C           0     136.861 133.459 147.352  0.00  0.00     0.269 C 
ATOM     22  O           0     136.343 134.556 147.238  0.00  0.00    -0.269 OA
ATOM     23  C           0     135.689 130.481 146.058  0.00  0.00     0.244 C 
ATOM     24  H           0     135.500 133.836 149.980  0.00  0.00     0.178 HD
ATOM     25  H           0     133.570 129.996 147.874  0.00  0.00     0.180 HD
ENDROOT
BRANCH   8  26
ATOM     26  C           0     137.047 130.510 150.751  0.00  0.00     0.325 C 
BRANCH  26  27
ATOM     27  O           0     137.560 129.158 150.882  0.00  0.00    -0.282 OA
BRANCH  27  28
ATOM     28  C           0     138.574 128.744 150.097  0.00  0.00     0.386 C 
ATOM     29  N           0     138.329 127.921 149.058  0.00  0.00    -0.213 N 
ATOM     30  H           0     137.424 127.627 148.875  0.00  0.00     0.199 HD
ATOM     31  O           0     139.709 129.113 150.326  0.00  0.00    -0.236 OA
BRANCH  29  32
ATOM     32  O           0     139.395 127.487 148.234  0.00  0.00    -0.285 OA
ATOM     33  H           0     139.853 128.282 147.927  0.00  0.00     0.244 HD
ENDBRANCH  29  32
ENDBRANCH  27  28
ENDBRANCH  26  27
ENDBRANCH   8  26
BRANCH   9  34
ATOM     34  N           0     134.367 129.339 150.360  0.00  0.00    -0.235 N 
ATOM     35  H           0     134.176 129.746 151.219  0.00  0.00     0.174 HD
ATOM     36  H           0     134.116 128.418 150.191  0.00  0.00     0.174 HD
ENDBRANCH   9  34
BRANCH  23  37
ATOM     37  O           0     137.039 130.046 145.989  0.00  0.00    -0.360 OA
ATOM     38  H           0     137.258 129.961 145.052  0.00  0.00     0.213 HD
ENDBRANCH  23  37
BRANCH  23  39
ATOM     39  O           0     134.820 129.351 145.865  0.00  0.00    -0.360 OA
ATOM     40  H           0     135.377 128.562 145.893  0.00  0.00     0.213 HD
ENDBRANCH  23  39
BRANCH  14  41
ATOM     41  O           0     134.507 130.936 144.028  0.00  0.00    -0.245 OA
BRANCH  41  42
ATOM     42  S           0     134.320 131.957 142.914  0.00  0.00     0.241 S 
ATOM     43  O           0     133.939 133.254 143.495  0.00  0.00    -0.579 OA
ATOM     44  O           0     135.580 132.105 142.168  0.00  0.00    -0.579 OA
BRANCH  42  45
ATOM     45  O           0     133.226 131.482 141.969  0.00  0.00    -0.274 OA
ATOM     46  H           0     133.511 131.707 141.074  0.00  0.00     0.234 HD
ENDBRANCH  42  45
ENDBRANCH  41  42
ENDBRANCH  14  41
BRANCH  17  47
ATOM     47  C           0     138.766 133.174 142.898  0.00  0.00     0.173 C 
BRANCH  47  48
ATOM     48  O           0     138.078 134.120 142.079  0.00  0.00    -0.400 OA
ATOM     49  H           0     138.635 134.910 142.034  0.00  0.00     0.209 HD
ENDBRANCH  47  48
ENDBRANCH  17  47
TORSDOF 12
ENDMDL
