# created with PyMOL 2.3.4
@<TRIPOS>MOLECULE
ligand_out_0001
49 53 1                 
SMALL
USER_CHARGES
@<TRIPOS>ATOM
1	   N	135.555	135.488	148.301	N.3	1	UNK0	-0.235	
2	   N	134.304	134.057	146.869	N.3	1	UNK0	-0.211	
3	   N	134.960	133.704	144.069	N.pl3	1	UNK0	-0.185	
4	   N	136.928	134.575	144.715	N.3	1	UNK0	-0.191	
5	   N	136.588	133.812	146.957	N.3	1	UNK0	-0.180	
6	   N	135.857	131.022	147.212	N.pl3	1	UNK0	-0.219	
7	   N	133.643	135.130	140.437	N.pl3	1	UNK0	-0.213	
8	   N	135.719	135.682	143.006	N.3	1	UNK0	-0.235	
9	   C	135.499	134.528	147.420	C.3	1	UNK0	0.672	
10	   C	134.361	132.747	146.204	C.3	1	UNK0	0.221	
11	   C	135.428	132.788	145.114	C.3	1	UNK0	0.192	
12	   C	135.862	134.714	143.876	C.3	1	UNK0	0.674	
13	   C	136.743	133.390	145.562	C.3	1	UNK0	0.221	
14	   C	137.738	133.334	147.721	C.3	1	UNK0	0.190	
15	   C	138.416	132.225	146.911	C.3	1	UNK0	0.161	
16	   C	138.197	130.781	147.342	C.3	1	UNK0	0.075	
17	   C	136.915	130.601	148.155	C.3	1	UNK0	0.129	
18	   C	136.563	129.110	148.285	C.3	1	UNK0	0.061	
19	   C	135.873	128.771	146.954	C.2	1	UNK0	0.210	
20	   C	135.074	132.097	147.362	C.2	1	UNK0	0.269	
21	   C	137.943	132.438	145.473	C.3	1	UNK0	0.244	
22	   C	133.697	133.556	143.329	C.2	1	UNK0	0.325	
23	   C	133.228	133.972	140.987	C.2	1	UNK0	0.386	
24	   C	137.803	128.248	148.495	C.2	1	UNK0	0.173	
25	   O	135.821	130.012	146.216	O.2	1	UNK0	-0.274	
26	   O	134.895	132.509	148.494	O.2	1	UNK0	-0.269	
27	   O	133.983	133.360	141.919	O.2	1	UNK0	-0.282	
28	   O	132.171	133.479	140.642	O.co2	1	UNK0	-0.236	
29	   O	132.848	135.773	139.458	O.3	1	UNK0	-0.285	
30	   O	137.595	131.221	144.829	O.2	1	UNK0	-0.360	
31	   O	138.989	133.083	144.726	O.2	1	UNK0	-0.360	
32	   O	139.831	132.479	146.942	O.2	1	UNK0	-0.245	
33	   O	139.015	132.748	149.231	O.3	1	UNK0	-0.579	
34	   O	140.948	131.382	148.820	O.3	1	UNK0	-0.579	
35	   O	141.124	133.809	148.598	O.3	1	UNK0	-0.274	
36	   O	138.280	128.417	149.831	O.2	1	UNK0	-0.400	
37	   S	140.225	132.595	148.408	S.3	1	UNK0	0.241	
38	   H	134.739	135.913	148.606	 H	1	UNK0	0.174	
39	   H	136.412	135.774	148.653	 H	1	UNK0	0.174	
40	   H	133.473	134.578	146.929	 H	1	UNK0	0.178	
41	   H	137.698	135.168	144.756	 H	1	UNK0	0.180	
42	   H	134.485	135.524	140.713	 H	1	UNK0	0.199	
43	   H	132.125	136.212	139.928	 H	1	UNK0	0.244	
44	   H	134.856	136.111	142.897	 H	1	UNK0	0.174	
45	   H	136.476	135.968	142.472	 H	1	UNK0	0.174	
46	   H	137.576	130.539	145.512	 H	1	UNK0	0.213	
47	   H	138.744	134.014	144.647	 H	1	UNK0	0.213	
48	   H	142.035	133.489	148.572	 H	1	UNK0	0.234	
49	   H	138.538	127.541	150.149	 H	1	UNK0	0.209	
@<TRIPOS>BOND
1 1 9 1
2 1 38 1
3 1 39 1
4 2 10 1
5 2 40 1
6 3 12 1
7 3 22 1
8 4 41 1
9 5 14 1
10 6 20 1
11 7 29 1
12 7 42 1
13 8 44 1
14 8 45 1
15 2 9 1
16 5 9 1
17 10 11 1
18 10 20 1
19 3 11 1
20 11 13 1
21 4 12 1
22 8 12 1
23 4 13 1
24 5 13 1
25 13 21 1
26 14 15 1
27 15 16 1
28 15 21 1
29 15 32 2
30 16 17 1
31 6 17 1
32 17 18 1
33 18 19 1
34 18 24 1
35 19 25 2
36 20 26 2
37 21 30 2
38 21 31 2
39 22 27 2
40 7 23 1
41 23 28 2
42 24 36 2
43 6 25 1
44 23 27 2
45 29 43 1
46 30 46 1
47 31 47 1
48 32 37 1
49 35 48 1
50 36 49 1
51 33 37 1
52 34 37 1
53 35 37 1
@<TRIPOS>SUBSTRUCTURE
1	UNK0	1	GROUP	1 ****	UNK
