# created with PyMOL 2.3.4
@<TRIPOS>MOLECULE
ligand_out_0001
30 32 1                 
SMALL
USER_CHARGES
@<TRIPOS>ATOM
1	   N	136.678	133.418	141.831	N.3	1	UNK0	-0.235	
2	   N	137.441	134.200	143.915	N.3	1	UNK0	-0.218	
3	   N	138.594	132.605	146.286	N.3	1	UNK0	-0.216	
4	   N	139.810	130.586	146.500	N.3	1	UNK0	-0.235	
5	   N	137.823	130.748	145.227	N.3	1	UNK0	-0.191	
6	   N	136.461	132.090	143.746	N.3	1	UNK0	-0.183	
7	   C	136.853	133.239	143.110	C.3	1	UNK0	0.672	
8	   C	137.064	134.246	145.324	C.3	1	UNK0	0.151	
9	   C	137.172	132.895	146.004	C.3	1	UNK0	0.180	
10	   C	138.803	131.271	146.033	C.3	1	UNK0	0.670	
11	   C	136.726	131.726	145.139	C.3	1	UNK0	0.217	
12	   C	135.639	130.992	143.207	C.3	1	UNK0	0.150	
13	   C	134.696	130.610	144.373	C.3	1	UNK0	0.093	
14	   C	135.420	131.096	145.653	C.3	1	UNK0	0.209	
15	   C	135.619	134.737	145.433	C.2	1	UNK0	0.206	
16	   C	135.031	136.593	143.994	C.2	1	UNK0	0.254	
17	   C	134.793	138.065	143.781	C.3	1	UNK0	0.126	
18	   O	135.568	136.159	145.145	O.2	1	UNK0	-0.320	
19	   O	134.738	135.802	143.129	O.co2	1	UNK0	-0.266	
20	   O	135.700	129.993	146.516	O.2	1	UNK0	-0.362	
21	   O	134.631	132.075	146.332	O.2	1	UNK0	-0.362	
22	   H	136.965	134.245	141.413	 H	1	UNK0	0.174	
23	   H	136.267	132.722	141.296	 H	1	UNK0	0.174	
24	   H	140.470	131.018	147.066	 H	1	UNK0	0.174	
25	   H	139.898	129.646	146.284	 H	1	UNK0	0.174	
26	   H	138.089	134.825	143.551	 H	1	UNK0	0.178	
27	   H	139.259	133.241	146.593	 H	1	UNK0	0.178	
28	   H	137.847	129.881	144.794	 H	1	UNK0	0.180	
29	   H	135.377	129.199	146.070	 H	1	UNK0	0.213	
30	   H	134.687	132.888	145.811	 H	1	UNK0	0.213	
@<TRIPOS>BOND
1 1 7 1
2 1 22 1
3 1 23 1
4 2 8 1
5 2 26 1
6 3 10 1
7 3 27 1
8 4 24 1
9 4 25 1
10 5 28 1
11 6 12 1
12 2 7 1
13 6 7 1
14 8 9 1
15 8 15 1
16 3 9 1
17 9 11 1
18 4 10 1
19 5 10 1
20 5 11 1
21 6 11 1
22 11 14 1
23 12 13 1
24 13 14 1
25 14 20 2
26 14 21 2
27 15 18 2
28 16 17 1
29 16 19 2
30 16 18 2
31 20 29 1
32 21 30 1
@<TRIPOS>SUBSTRUCTURE
1	UNK0	1	GROUP	1 ****	UNK
