MODEL 1
REMARK VINA RESULT:      -6.7      0.000      0.000
REMARK  5 active torsions:
REMARK  status: ('A' for Active; 'I' for Inactive)
REMARK    1  A    between atoms: C_6  and  C_7 
REMARK    2  A    between atoms: C_7  and  O_8 
REMARK    3  A    between atoms: O_8  and  C_9 
REMARK    4  A    between atoms: C_23  and  O_24 
REMARK    5  A    between atoms: C_23  and  O_25 
ROOT
ATOM      1  N           0     136.678 133.418 141.831  0.00  0.00    -0.235 N 
ATOM      2  H           0     136.965 134.245 141.413  0.00  0.00     0.174 HD
ATOM      3  H           0     136.267 132.722 141.296  0.00  0.00     0.174 HD
ATOM      4  C           0     136.853 133.239 143.110  0.00  0.00     0.672 C 
ATOM      5  N           0     137.441 134.200 143.915  0.00  0.00    -0.218 N 
ATOM      6  C           0     137.064 134.246 145.324  0.00  0.00     0.151 C 
ATOM      7  C           0     137.172 132.895 146.004  0.00  0.00     0.180 C 
ATOM      8  N           0     138.594 132.605 146.286  0.00  0.00    -0.216 N 
ATOM      9  C           0     138.803 131.271 146.033  0.00  0.00     0.670 C 
ATOM     10  N           0     139.810 130.586 146.500  0.00  0.00    -0.235 N 
ATOM     11  H           0     140.470 131.018 147.066  0.00  0.00     0.174 HD
ATOM     12  H           0     139.898 129.646 146.284  0.00  0.00     0.174 HD
ATOM     13  C           0     136.726 131.726 145.139  0.00  0.00     0.217 C 
ATOM     14  N           0     137.823 130.748 145.227  0.00  0.00    -0.191 N 
ATOM     15  N           0     136.461 132.090 143.746  0.00  0.00    -0.183 N 
ATOM     16  C           0     135.639 130.992 143.207  0.00  0.00     0.150 C 
ATOM     17  C           0     134.696 130.610 144.373  0.00  0.00     0.093 C 
ATOM     18  C           0     135.420 131.096 145.653  0.00  0.00     0.209 C 
ATOM     19  H           0     138.089 134.825 143.551  0.00  0.00     0.178 HD
ATOM     20  H           0     139.259 133.241 146.593  0.00  0.00     0.178 HD
ATOM     21  H           0     137.847 129.881 144.794  0.00  0.00     0.180 HD
ENDROOT
BRANCH   6  22
ATOM     22  C           0     135.619 134.737 145.433  0.00  0.00     0.206 C 
BRANCH  22  23
ATOM     23  O           0     135.568 136.159 145.145  0.00  0.00    -0.320 OA
BRANCH  23  24
ATOM     24  C           0     135.031 136.593 143.994  0.00  0.00     0.254 C 
ATOM     25  C           0     134.793 138.065 143.781  0.00  0.00     0.126 C 
ATOM     26  O           0     134.738 135.802 143.129  0.00  0.00    -0.266 OA
ENDBRANCH  23  24
ENDBRANCH  22  23
ENDBRANCH   6  22
BRANCH  18  27
ATOM     27  O           0     135.700 129.993 146.516  0.00  0.00    -0.362 OA
ATOM     28  H           0     135.377 129.199 146.070  0.00  0.00     0.213 HD
ENDBRANCH  18  27
BRANCH  18  29
ATOM     29  O           0     134.631 132.075 146.332  0.00  0.00    -0.362 OA
ATOM     30  H           0     134.687 132.888 145.811  0.00  0.00     0.213 HD
ENDBRANCH  18  29
TORSDOF 5
ENDMDL
MODEL 2
REMARK VINA RESULT:      -6.7      2.440      3.648
REMARK  5 active torsions:
REMARK  status: ('A' for Active; 'I' for Inactive)
REMARK    1  A    between atoms: C_6  and  C_7 
REMARK    2  A    between atoms: C_7  and  O_8 
REMARK    3  A    between atoms: O_8  and  C_9 
REMARK    4  A    between atoms: C_23  and  O_24 
REMARK    5  A    between atoms: C_23  and  O_25 
ROOT
ATOM      1  N           0     139.096 133.209 143.152  0.00  0.00    -0.235 N 
ATOM      2  H           0     139.478 133.666 142.386  0.00  0.00     0.174 HD
ATOM      3  H           0     139.571 132.469 143.560  0.00  0.00     0.174 HD
ATOM      4  C           0     137.948 133.594 143.635  0.00  0.00     0.672 C 
ATOM      5  N           0     137.236 134.649 143.090  0.00  0.00    -0.218 N 
ATOM      6  C           0     135.783 134.641 143.220  0.00  0.00     0.151 C 
ATOM      7  C           0     135.324 134.417 144.649  0.00  0.00     0.180 C 
ATOM      8  N           0     135.492 135.671 145.415  0.00  0.00    -0.216 N 
ATOM      9  C           0     135.948 135.334 146.666  0.00  0.00     0.670 C 
ATOM     10  N           0     135.867 136.112 147.709  0.00  0.00    -0.235 N 
ATOM     11  H           0     135.465 136.991 147.628  0.00  0.00     0.174 HD
ATOM     12  H           0     136.209 135.812 148.565  0.00  0.00     0.174 HD
ATOM     13  C           0     136.159 133.405 145.418  0.00  0.00     0.217 C 
ATOM     14  N           0     136.498 134.076 146.683  0.00  0.00    -0.191 N 
ATOM     15  N           0     137.366 132.977 144.711  0.00  0.00    -0.183 N 
ATOM     16  C           0     137.776 131.722 145.366  0.00  0.00     0.150 C 
ATOM     17  C           0     136.444 130.995 145.669  0.00  0.00     0.093 C 
ATOM     18  C           0     135.373 132.114 145.706  0.00  0.00     0.209 C 
ATOM     19  H           0     137.692 135.374 142.635  0.00  0.00     0.178 HD
ATOM     20  H           0     135.312 136.568 145.092  0.00  0.00     0.178 HD
ATOM     21  H           0     137.020 133.695 147.406  0.00  0.00     0.180 HD
ENDROOT
BRANCH   6  22
ATOM     22  C           0     135.213 133.527 142.341  0.00  0.00     0.206 C 
BRANCH  22  23
ATOM     23  O           0     133.763 133.579 142.371  0.00  0.00    -0.320 OA
BRANCH  23  24
ATOM     24  C           0     133.044 132.644 141.731  0.00  0.00     0.254 C 
ATOM     25  C           0     131.963 133.055 140.765  0.00  0.00     0.126 C 
ATOM     26  O           0     133.263 131.472 141.929  0.00  0.00    -0.266 OA
ENDBRANCH  23  24
ENDBRANCH  22  23
ENDBRANCH   6  22
BRANCH  18  27
ATOM     27  O           0     134.759 132.175 146.993  0.00  0.00    -0.362 OA
ATOM     28  H           0     134.669 131.264 147.304  0.00  0.00     0.213 HD
ENDBRANCH  18  27
BRANCH  18  29
ATOM     29  O           0     134.390 131.895 144.692  0.00  0.00    -0.362 OA
ATOM     30  H           0     134.865 131.821 143.853  0.00  0.00     0.213 HD
ENDBRANCH  18  29
TORSDOF 5
ENDMDL
MODEL 3
REMARK VINA RESULT:      -6.6      2.490      5.166
REMARK  5 active torsions:
REMARK  status: ('A' for Active; 'I' for Inactive)
REMARK    1  A    between atoms: C_6  and  C_7 
REMARK    2  A    between atoms: C_7  and  O_8 
REMARK    3  A    between atoms: O_8  and  C_9 
REMARK    4  A    between atoms: C_23  and  O_24 
REMARK    5  A    between atoms: C_23  and  O_25 
ROOT
ATOM      1  N           0     134.803 131.908 146.583  0.00  0.00    -0.235 N 
ATOM      2  H           0     135.028 131.966 147.524  0.00  0.00     0.174 HD
ATOM      3  H           0     134.144 131.263 146.281  0.00  0.00     0.174 HD
ATOM      4  C           0     135.379 132.702 145.724  0.00  0.00     0.672 C 
ATOM      5  N           0     136.318 133.644 146.107  0.00  0.00    -0.218 N 
ATOM      6  C           0     137.339 134.034 145.139  0.00  0.00     0.151 C 
ATOM      7  C           0     136.752 134.436 143.800  0.00  0.00     0.180 C 
ATOM      8  N           0     136.182 135.796 143.907  0.00  0.00    -0.216 N 
ATOM      9  C           0     135.009 135.811 143.191  0.00  0.00     0.670 C 
ATOM     10  N           0     134.428 136.896 142.761  0.00  0.00    -0.235 N 
ATOM     11  H           0     134.825 137.763 142.942  0.00  0.00     0.174 HD
ATOM     12  H           0     133.601 136.837 142.260  0.00  0.00     0.174 HD
ATOM     13  C           0     135.575 133.581 143.356  0.00  0.00     0.217 C 
ATOM     14  N           0     134.525 134.544 142.984  0.00  0.00    -0.191 N 
ATOM     15  N           0     135.096 132.656 144.384  0.00  0.00    -0.183 N 
ATOM     16  C           0     134.306 131.644 143.660  0.00  0.00     0.150 C 
ATOM     17  C           0     135.090 131.413 142.347  0.00  0.00     0.093 C 
ATOM     18  C           0     135.929 132.700 142.146  0.00  0.00     0.209 C 
ATOM     19  H           0     136.298 134.034 146.996  0.00  0.00     0.178 HD
ATOM     20  H           0     136.566 136.542 144.394  0.00  0.00     0.178 HD
ATOM     21  H           0     133.644 134.321 142.647  0.00  0.00     0.180 HD
ENDROOT
BRANCH   6  22
ATOM     22  C           0     138.293 132.859 144.926  0.00  0.00     0.206 C 
BRANCH  22  23
ATOM     23  O           0     138.886 132.479 146.195  0.00  0.00    -0.320 OA
BRANCH  23  24
ATOM     24  C           0     138.806 131.209 146.622  0.00  0.00     0.254 C 
ATOM     25  C           0     140.049 130.481 147.062  0.00  0.00     0.126 C 
ATOM     26  O           0     137.735 130.649 146.651  0.00  0.00    -0.266 OA
ENDBRANCH  23  24
ENDBRANCH  22  23
ENDBRANCH   6  22
BRANCH  18  27
ATOM     27  O           0     135.563 133.348 140.927  0.00  0.00    -0.362 OA
ATOM     28  H           0     135.789 134.282 141.028  0.00  0.00     0.213 HD
ENDBRANCH  18  27
BRANCH  18  29
ATOM     29  O           0     137.324 132.390 142.149  0.00  0.00    -0.362 OA
ATOM     30  H           0     137.449 131.673 142.785  0.00  0.00     0.213 HD
ENDBRANCH  18  29
TORSDOF 5
ENDMDL
MODEL 4
REMARK VINA RESULT:      -6.4      2.284      3.880
REMARK  5 active torsions:
REMARK  status: ('A' for Active; 'I' for Inactive)
REMARK    1  A    between atoms: C_6  and  C_7 
REMARK    2  A    between atoms: C_7  and  O_8 
REMARK    3  A    between atoms: O_8  and  C_9 
REMARK    4  A    between atoms: C_23  and  O_24 
REMARK    5  A    between atoms: C_23  and  O_25 
ROOT
ATOM      1  N           0     138.648 132.342 147.259  0.00  0.00    -0.235 N 
ATOM      2  H           0     138.530 132.276 148.220  0.00  0.00     0.174 HD
ATOM      3  H           0     139.506 132.128 146.861  0.00  0.00     0.174 HD
ATOM      4  C           0     137.653 132.712 146.504  0.00  0.00     0.672 C 
ATOM      5  N           0     136.408 133.022 147.025  0.00  0.00    -0.218 N 
ATOM      6  C           0     135.575 133.978 146.303  0.00  0.00     0.151 C 
ATOM      7  C           0     135.426 133.633 144.833  0.00  0.00     0.180 C 
ATOM      8  N           0     134.459 132.523 144.691  0.00  0.00    -0.216 N 
ATOM      9  C           0     134.936 131.681 143.716  0.00  0.00     0.670 C 
ATOM     10  N           0     134.202 130.815 143.073  0.00  0.00    -0.235 N 
ATOM     11  H           0     133.256 130.737 143.275  0.00  0.00     0.174 HD
ATOM     12  H           0     134.601 130.250 142.395  0.00  0.00     0.174 HD
ATOM     13  C           0     136.695 133.095 144.189  0.00  0.00     0.217 C 
ATOM     14  N           0     136.279 131.863 143.500  0.00  0.00    -0.191 N 
ATOM     15  N           0     137.772 132.824 145.143  0.00  0.00    -0.183 N 
ATOM     16  C           0     139.002 132.760 144.334  0.00  0.00     0.150 C 
ATOM     17  C           0     138.819 133.868 143.270  0.00  0.00     0.093 C 
ATOM     18  C           0     137.288 134.087 143.174  0.00  0.00     0.209 C 
ATOM     19  H           0     136.098 132.612 147.848  0.00  0.00     0.178 HD
ATOM     20  H           0     133.638 132.410 145.195  0.00  0.00     0.178 HD
ATOM     21  H           0     136.854 131.281 142.980  0.00  0.00     0.180 HD
ENDROOT
BRANCH   6  22
ATOM     22  C           0     136.204 135.368 146.419  0.00  0.00     0.206 C 
BRANCH  22  23
ATOM     23  O           0     135.406 136.325 145.675  0.00  0.00    -0.320 OA
BRANCH  23  24
ATOM     24  C           0     135.746 137.623 145.669  0.00  0.00     0.254 C 
ATOM     25  C           0     135.572 138.454 146.914  0.00  0.00     0.126 C 
ATOM     26  O           0     136.192 138.126 144.665  0.00  0.00    -0.266 OA
ENDBRANCH  23  24
ENDBRANCH  22  23
ENDBRANCH   6  22
BRANCH  18  27
ATOM     27  O           0     136.824 133.796 141.856  0.00  0.00    -0.362 OA
ATOM     28  H           0     136.303 132.984 141.916  0.00  0.00     0.213 HD
ENDBRANCH  18  27
BRANCH  18  29
ATOM     29  O           0     136.953 135.428 143.537  0.00  0.00    -0.362 OA
ATOM     30  H           0     137.776 135.858 143.807  0.00  0.00     0.213 HD
ENDBRANCH  18  29
TORSDOF 5
ENDMDL
MODEL 5
REMARK VINA RESULT:      -6.2      1.626      2.255
REMARK  5 active torsions:
REMARK  status: ('A' for Active; 'I' for Inactive)
REMARK    1  A    between atoms: C_6  and  C_7 
REMARK    2  A    between atoms: C_7  and  O_8 
REMARK    3  A    between atoms: O_8  and  C_9 
REMARK    4  A    between atoms: C_23  and  O_24 
REMARK    5  A    between atoms: C_23  and  O_25 
ROOT
ATOM      1  N           0     135.138 130.468 143.280  0.00  0.00    -0.235 N 
ATOM      2  H           0     134.978 130.327 142.334  0.00  0.00     0.174 HD
ATOM      3  H           0     134.700 129.903 143.935  0.00  0.00     0.174 HD
ATOM      4  C           0     135.947 131.413 143.670  0.00  0.00     0.672 C 
ATOM      5  N           0     136.601 132.240 142.773  0.00  0.00    -0.218 N 
ATOM      6  C           0     136.955 133.587 143.207  0.00  0.00     0.151 C 
ATOM      7  C           0     137.701 133.600 144.527  0.00  0.00     0.180 C 
ATOM      8  N           0     139.103 133.192 144.298  0.00  0.00    -0.216 N 
ATOM      9  C           0     139.477 132.386 145.345  0.00  0.00     0.670 C 
ATOM     10  N           0     140.715 132.139 145.673  0.00  0.00    -0.235 N 
ATOM     11  H           0     141.440 132.534 145.163  0.00  0.00     0.174 HD
ATOM     12  H           0     140.911 131.561 146.426  0.00  0.00     0.174 HD
ATOM     13  C           0     137.188 132.588 145.540  0.00  0.00     0.217 C 
ATOM     14  N           0     138.388 131.875 146.006  0.00  0.00    -0.191 N 
ATOM     15  N           0     136.202 131.654 144.995  0.00  0.00    -0.183 N 
ATOM     16  C           0     135.514 131.085 146.167  0.00  0.00     0.150 C 
ATOM     17  C           0     135.377 132.275 147.146  0.00  0.00     0.093 C 
ATOM     18  C           0     136.490 133.269 146.730  0.00  0.00     0.209 C 
ATOM     19  H           0     136.819 131.930 141.879  0.00  0.00     0.178 HD
ATOM     20  H           0     139.658 133.446 143.543  0.00  0.00     0.178 HD
ATOM     21  H           0     138.407 131.166 146.667  0.00  0.00     0.180 HD
ENDROOT
BRANCH   6  22
ATOM     22  C           0     135.675 134.410 143.357  0.00  0.00     0.206 C 
BRANCH  22  23
ATOM     23  O           0     136.005 135.736 143.847  0.00  0.00    -0.320 OA
BRANCH  23  24
ATOM     24  C           0     135.134 136.745 143.695  0.00  0.00     0.254 C 
ATOM     25  C           0     135.149 137.906 144.656  0.00  0.00     0.126 C 
ATOM     26  O           0     134.336 136.723 142.787  0.00  0.00    -0.266 OA
ENDBRANCH  23  24
ENDBRANCH  22  23
ENDBRANCH   6  22
BRANCH  18  27
ATOM     27  O           0     137.409 133.468 147.805  0.00  0.00    -0.362 OA
ATOM     28  H           0     138.290 133.268 147.461  0.00  0.00     0.213 HD
ENDBRANCH  18  27
BRANCH  18  29
ATOM     29  O           0     135.919 134.515 146.324  0.00  0.00    -0.362 OA
ATOM     30  H           0     135.065 134.311 145.920  0.00  0.00     0.213 HD
ENDBRANCH  18  29
TORSDOF 5
ENDMDL
MODEL 6
REMARK VINA RESULT:      -6.2      2.746      4.715
REMARK  5 active torsions:
REMARK  status: ('A' for Active; 'I' for Inactive)
REMARK    1  A    between atoms: C_6  and  C_7 
REMARK    2  A    between atoms: C_7  and  O_8 
REMARK    3  A    between atoms: O_8  and  C_9 
REMARK    4  A    between atoms: C_23  and  O_24 
REMARK    5  A    between atoms: C_23  and  O_25 
ROOT
ATOM      1  N           0     136.072 134.938 146.431  0.00  0.00    -0.235 N 
ATOM      2  H           0     136.523 135.782 146.589  0.00  0.00     0.174 HD
ATOM      3  H           0     135.637 134.476 147.164  0.00  0.00     0.174 HD
ATOM      4  C           0     136.046 134.428 145.231  0.00  0.00     0.672 C 
ATOM      5  N           0     136.647 135.053 144.152  0.00  0.00    -0.218 N 
ATOM      6  C           0     137.130 134.222 143.054  0.00  0.00     0.151 C 
ATOM      7  C           0     136.078 133.256 142.544  0.00  0.00     0.180 C 
ATOM      8  N           0     135.110 133.990 141.703  0.00  0.00    -0.216 N 
ATOM      9  C           0     133.859 133.495 141.981  0.00  0.00     0.670 C 
ATOM     10  N           0     132.826 133.633 141.198  0.00  0.00    -0.235 N 
ATOM     11  H           0     132.915 134.111 140.358  0.00  0.00     0.174 HD
ATOM     12  H           0     131.970 133.257 141.453  0.00  0.00     0.174 HD
ATOM     13  C           0     135.218 132.641 143.638  0.00  0.00     0.217 C 
ATOM     14  N           0     133.831 132.836 143.185  0.00  0.00    -0.191 N 
ATOM     15  N           0     135.427 133.237 144.958  0.00  0.00    -0.183 N 
ATOM     16  C           0     134.886 132.257 145.917  0.00  0.00     0.150 C 
ATOM     17  C           0     135.286 130.883 145.329  0.00  0.00     0.093 C 
ATOM     18  C           0     135.504 131.140 143.817  0.00  0.00     0.209 C 
ATOM     19  H           0     136.744 136.019 144.127  0.00  0.00     0.178 HD
ATOM     20  H           0     135.320 134.695 141.069  0.00  0.00     0.178 HD
ATOM     21  H           0     133.034 132.546 143.655  0.00  0.00     0.180 HD
ENDROOT
BRANCH   6  22
ATOM     22  C           0     138.342 133.422 143.535  0.00  0.00     0.206 C 
BRANCH  22  23
ATOM     23  O           0     138.290 133.286 144.979  0.00  0.00    -0.320 OA
BRANCH  23  24
ATOM     24  C           0     138.980 132.309 145.587  0.00  0.00     0.254 C 
ATOM     25  C           0     140.376 132.572 146.089  0.00  0.00     0.126 C 
ATOM     26  O           0     138.482 131.217 145.731  0.00  0.00    -0.266 OA
ENDBRANCH  23  24
ENDBRANCH  22  23
ENDBRANCH   6  22
BRANCH  18  27
ATOM     27  O           0     134.593 130.359 143.042  0.00  0.00    -0.362 OA
ATOM     28  H           0     134.338 129.603 143.588  0.00  0.00     0.213 HD
ENDBRANCH  18  27
BRANCH  18  29
ATOM     29  O           0     136.853 130.844 143.450  0.00  0.00    -0.362 OA
ATOM     30  H           0     137.419 131.412 143.990  0.00  0.00     0.213 HD
ENDBRANCH  18  29
TORSDOF 5
ENDMDL
MODEL 7
REMARK VINA RESULT:      -6.1      2.138      3.570
REMARK  5 active torsions:
REMARK  status: ('A' for Active; 'I' for Inactive)
REMARK    1  A    between atoms: C_6  and  C_7 
REMARK    2  A    between atoms: C_7  and  O_8 
REMARK    3  A    between atoms: O_8  and  C_9 
REMARK    4  A    between atoms: C_23  and  O_24 
REMARK    5  A    between atoms: C_23  and  O_25 
ROOT
ATOM      1  N           0     139.021 133.239 148.055  0.00  0.00    -0.235 N 
ATOM      2  H           0     138.905 133.526 148.974  0.00  0.00     0.174 HD
ATOM      3  H           0     139.896 132.967 147.738  0.00  0.00     0.174 HD
ATOM      4  C           0     137.998 133.213 147.247  0.00  0.00     0.672 C 
ATOM      5  N           0     136.728 133.585 147.654  0.00  0.00    -0.218 N 
ATOM      6  C           0     135.814 134.128 146.655  0.00  0.00     0.151 C 
ATOM      7  C           0     135.702 133.248 145.424  0.00  0.00     0.180 C 
ATOM      8  N           0     134.842 132.086 145.734  0.00  0.00    -0.216 N 
ATOM      9  C           0     135.397 130.986 145.127  0.00  0.00     0.670 C 
ATOM     10  N           0     134.749 129.883 144.875  0.00  0.00    -0.235 N 
ATOM     11  H           0     133.813 129.804 145.119  0.00  0.00     0.174 HD
ATOM     12  H           0     135.201 129.143 144.442  0.00  0.00     0.174 HD
ATOM     13  C           0     137.018 132.622 144.987  0.00  0.00     0.217 C 
ATOM     14  N           0     136.719 131.191 144.818  0.00  0.00    -0.191 N 
ATOM     15  N           0     138.111 132.820 145.939  0.00  0.00    -0.183 N 
ATOM     16  C           0     139.345 132.566 145.174  0.00  0.00     0.150 C 
ATOM     17  C           0     139.065 133.178 143.781  0.00  0.00     0.093 C 
ATOM     18  C           0     137.521 133.212 143.658  0.00  0.00     0.209 C 
ATOM     19  H           0     136.454 133.487 148.580  0.00  0.00     0.178 HD
ATOM     20  H           0     134.033 132.098 146.269  0.00  0.00     0.178 HD
ATOM     21  H           0     137.348 130.509 144.534  0.00  0.00     0.180 HD
ENDROOT
BRANCH   6  22
ATOM     22  C           0     136.311 135.510 146.228  0.00  0.00     0.206 C 
BRANCH  22  23
ATOM     23  O           0     135.335 136.126 145.349  0.00  0.00    -0.320 OA
BRANCH  23  24
ATOM     24  C           0     135.605 137.304 144.765  0.00  0.00     0.254 C 
ATOM     25  C           0     134.696 137.840 143.690  0.00  0.00     0.126 C 
ATOM     26  O           0     136.579 137.936 145.102  0.00  0.00    -0.266 OA
ENDBRANCH  23  24
ENDBRANCH  22  23
ENDBRANCH   6  22
BRANCH  18  27
ATOM     27  O           0     137.090 132.411 142.557  0.00  0.00    -0.362 OA
ATOM     28  H           0     136.553 131.697 142.924  0.00  0.00     0.213 HD
ENDBRANCH  18  27
BRANCH  18  29
ATOM     29  O           0     137.063 134.557 143.508  0.00  0.00    -0.362 OA
ATOM     30  H           0     136.101 134.515 143.413  0.00  0.00     0.213 HD
ENDBRANCH  18  29
TORSDOF 5
ENDMDL
MODEL 8
REMARK VINA RESULT:      -6.1      2.585      4.971
REMARK  5 active torsions:
REMARK  status: ('A' for Active; 'I' for Inactive)
REMARK    1  A    between atoms: C_6  and  C_7 
REMARK    2  A    between atoms: C_7  and  O_8 
REMARK    3  A    between atoms: O_8  and  C_9 
REMARK    4  A    between atoms: C_23  and  O_24 
REMARK    5  A    between atoms: C_23  and  O_25 
ROOT
ATOM      1  N           0     134.417 130.496 144.845  0.00  0.00    -0.235 N 
ATOM      2  H           0     134.163 129.847 145.520  0.00  0.00     0.174 HD
ATOM      3  H           0     134.031 130.446 143.956  0.00  0.00     0.174 HD
ATOM      4  C           0     135.269 131.438 145.134  0.00  0.00     0.672 C 
ATOM      5  N           0     135.841 131.555 146.389  0.00  0.00    -0.218 N 
ATOM      6  C           0     137.166 132.159 146.492  0.00  0.00     0.151 C 
ATOM      7  C           0     137.257 133.495 145.780  0.00  0.00     0.180 C 
ATOM      8  N           0     136.604 134.532 146.606  0.00  0.00    -0.216 N 
ATOM      9  C           0     135.914 135.364 145.758  0.00  0.00     0.670 C 
ATOM     10  N           0     135.527 136.570 146.070  0.00  0.00    -0.235 N 
ATOM     11  H           0     135.723 136.930 146.950  0.00  0.00     0.174 HD
ATOM     12  H           0     135.044 137.106 145.424  0.00  0.00     0.174 HD
ATOM     13  C           0     136.500 133.549 144.462  0.00  0.00     0.217 C 
ATOM     14  N           0     135.684 134.771 144.542  0.00  0.00    -0.191 N 
ATOM     15  N           0     135.662 132.375 144.213  0.00  0.00    -0.183 N 
ATOM     16  C           0     135.389 132.390 142.765  0.00  0.00     0.150 C 
ATOM     17  C           0     136.717 132.864 142.129  0.00  0.00     0.093 C 
ATOM     18  C           0     137.451 133.634 143.256  0.00  0.00     0.209 C 
ATOM     19  H           0     135.372 131.244 147.180  0.00  0.00     0.178 HD
ATOM     20  H           0     136.653 134.611 147.572  0.00  0.00     0.178 HD
ATOM     21  H           0     135.087 135.102 143.853  0.00  0.00     0.180 HD
ENDROOT
BRANCH   6  22
ATOM     22  C           0     138.193 131.204 145.881  0.00  0.00     0.206 C 
BRANCH  22  23
ATOM     23  O           0     139.371 131.154 146.727  0.00  0.00    -0.320 OA
BRANCH  23  24
ATOM     24  C           0     140.360 132.045 146.555  0.00  0.00     0.254 C 
ATOM     25  C           0     140.745 132.971 147.680  0.00  0.00     0.126 C 
ATOM     26  O           0     140.941 132.105 145.497  0.00  0.00    -0.266 OA
ENDBRANCH  23  24
ENDBRANCH  22  23
ENDBRANCH   6  22
BRANCH  18  27
ATOM     27  O           0     137.661 134.994 142.875  0.00  0.00    -0.362 OA
ATOM     28  H           0     138.235 134.982 142.098  0.00  0.00     0.213 HD
ENDBRANCH  18  27
BRANCH  18  29
ATOM     29  O           0     138.697 133.003 143.561  0.00  0.00    -0.362 OA
ATOM     30  H           0     139.291 133.697 143.878  0.00  0.00     0.213 HD
ENDBRANCH  18  29
TORSDOF 5
ENDMDL
MODEL 9
REMARK VINA RESULT:      -6.0      2.248      4.975
REMARK  5 active torsions:
REMARK  status: ('A' for Active; 'I' for Inactive)
REMARK    1  A    between atoms: C_6  and  C_7 
REMARK    2  A    between atoms: C_7  and  O_8 
REMARK    3  A    between atoms: O_8  and  C_9 
REMARK    4  A    between atoms: C_23  and  O_24 
REMARK    5  A    between atoms: C_23  and  O_25 
ROOT
ATOM      1  N           0     138.728 130.847 145.585  0.00  0.00    -0.235 N 
ATOM      2  H           0     138.811 130.186 146.291  0.00  0.00     0.174 HD
ATOM      3  H           0     139.491 131.052 145.022  0.00  0.00     0.174 HD
ATOM      4  C           0     137.592 131.454 145.390  0.00  0.00     0.672 C 
ATOM      5  N           0     136.474 131.190 146.163  0.00  0.00    -0.218 N 
ATOM      6  C           0     135.491 132.255 146.341  0.00  0.00     0.151 C 
ATOM      7  C           0     135.051 132.872 145.027  0.00  0.00     0.180 C 
ATOM      8  N           0     134.100 131.960 144.356  0.00  0.00    -0.216 N 
ATOM      9  C           0     134.384 131.980 143.012  0.00  0.00     0.670 C 
ATOM     10  N           0     133.553 131.599 142.082  0.00  0.00    -0.235 N 
ATOM     11  H           0     132.670 131.277 142.323  0.00  0.00     0.174 HD
ATOM     12  H           0     133.816 131.639 141.151  0.00  0.00     0.174 HD
ATOM     13  C           0     136.173 133.038 144.013  0.00  0.00     0.217 C 
ATOM     14  N           0     135.651 132.449 142.769  0.00  0.00    -0.191 N 
ATOM     15  N           0     137.427 132.397 144.409  0.00  0.00    -0.183 N 
ATOM     16  C           0     138.467 133.026 143.575  0.00  0.00     0.150 C 
ATOM     17  C           0     138.047 134.513 143.495  0.00  0.00     0.093 C 
ATOM     18  C           0     136.525 134.518 143.784  0.00  0.00     0.209 C 
ATOM     19  H           0     136.347 130.321 146.575  0.00  0.00     0.178 HD
ATOM     20  H           0     133.401 131.442 144.787  0.00  0.00     0.178 HD
ATOM     21  H           0     136.120 132.403 141.922  0.00  0.00     0.180 HD
ENDROOT
BRANCH   6  22
ATOM     22  C           0     136.100 133.349 147.219  0.00  0.00     0.206 C 
BRANCH  22  23
ATOM     23  O           0     135.506 133.296 148.542  0.00  0.00    -0.320 OA
BRANCH  23  24
ATOM     24  C           0     135.843 132.313 149.391  0.00  0.00     0.254 C 
ATOM     25  C           0     134.845 131.817 150.405  0.00  0.00     0.126 C 
ATOM     26  O           0     136.947 131.825 149.343  0.00  0.00    -0.266 OA
ENDBRANCH  23  24
ENDBRANCH  22  23
ENDBRANCH   6  22
BRANCH  18  27
ATOM     27  O           0     135.807 135.038 142.664  0.00  0.00    -0.362 OA
ATOM     28  H           0     135.448 135.894 142.935  0.00  0.00     0.213 HD
ENDBRANCH  18  27
BRANCH  18  29
ATOM     29  O           0     136.243 135.283 144.957  0.00  0.00    -0.362 OA
ATOM     30  H           0     136.308 136.214 144.706  0.00  0.00     0.213 HD
ENDBRANCH  18  29
TORSDOF 5
ENDMDL
