MODEL 1
REMARK VINA RESULT:      -8.1      0.000      0.000
REMARK  5 active torsions:
REMARK  status: ('A' for Active; 'I' for Inactive)
REMARK    1  A    between atoms: C_6  and  C_7 
REMARK    2  A    between atoms: C_7  and  O_8 
REMARK    3  A    between atoms: O_8  and  C_9 
REMARK       I    between atoms: C_9  and  N_10 
REMARK    4  A    between atoms: C_23  and  O_24 
REMARK    5  A    between atoms: C_23  and  O_25 
ROOT
ATOM      1  N           0     135.482 132.652 147.029  0.00  0.00    -0.235 N 
ATOM      2  H           0     135.783 132.899 147.917  0.00  0.00     0.174 HD
ATOM      3  H           0     134.882 131.898 146.914  0.00  0.00     0.174 HD
ATOM      4  C           0     135.881 133.332 145.991  0.00  0.00     0.672 C 
ATOM      5  N           0     136.733 134.417 146.104  0.00  0.00    -0.218 N 
ATOM      6  C           0     137.609 134.729 144.979  0.00  0.00     0.151 C 
ATOM      7  C           0     136.860 134.821 143.664  0.00  0.00     0.180 C 
ATOM      8  N           0     136.145 136.113 143.601  0.00  0.00    -0.216 N 
ATOM      9  C           0     134.920 135.881 143.025  0.00  0.00     0.670 C 
ATOM     10  N           0     134.177 136.806 142.484  0.00  0.00    -0.235 N 
ATOM     11  H           0     134.483 137.727 142.472  0.00  0.00     0.174 HD
ATOM     12  H           0     133.321 136.574 142.094  0.00  0.00     0.174 HD
ATOM     13  C           0     135.759 133.786 143.502  0.00  0.00     0.217 C 
ATOM     14  N           0     134.573 134.555 143.089  0.00  0.00    -0.191 N 
ATOM     15  N           0     135.487 133.017 144.717  0.00  0.00    -0.183 N 
ATOM     16  C           0     134.760 131.817 144.265  0.00  0.00     0.150 C 
ATOM     17  C           0     135.445 131.433 142.931  0.00  0.00     0.093 C 
ATOM     18  C           0     136.105 132.741 142.426  0.00  0.00     0.209 C 
ATOM     19  H           0     136.747 134.956 146.910  0.00  0.00     0.178 HD
ATOM     20  H           0     136.479 136.970 143.910  0.00  0.00     0.178 HD
ATOM     21  H           0     133.697 134.187 142.893  0.00  0.00     0.180 HD
ENDROOT
BRANCH   6  22
ATOM     22  C           0     138.673 133.636 144.865  0.00  0.00     0.208 C 
BRANCH  22  23
ATOM     23  O           0     139.422 133.557 146.105  0.00  0.00    -0.302 OA
BRANCH  23  24
ATOM     24  C           0     140.473 132.721 146.206  0.00  0.00     0.358 C 
ATOM     25  N           0     140.801 132.192 147.402  0.00  0.00    -0.346 N 
ATOM     26  H           0     140.280 132.413 148.190  0.00  0.00     0.161 HD
ATOM     27  H           0     141.558 131.590 147.475  0.00  0.00     0.161 HD
ATOM     28  O           0     141.125 132.443 145.219  0.00  0.00    -0.239 OA
ENDBRANCH  23  24
ENDBRANCH  22  23
ENDBRANCH   6  22
BRANCH  18  29
ATOM     29  O           0     135.556 133.120 141.163  0.00  0.00    -0.362 OA
ATOM     30  H           0     134.813 133.712 141.347  0.00  0.00     0.213 HD
ENDBRANCH  18  29
BRANCH  18  31
ATOM     31  O           0     137.521 132.580 142.328  0.00  0.00    -0.362 OA
ATOM     32  H           0     137.884 132.762 143.206  0.00  0.00     0.213 HD
ENDBRANCH  18  31
TORSDOF 5
ENDMDL
MODEL 2
REMARK VINA RESULT:      -7.4      2.160      5.385
REMARK  5 active torsions:
REMARK  status: ('A' for Active; 'I' for Inactive)
REMARK    1  A    between atoms: C_6  and  C_7 
REMARK    2  A    between atoms: C_7  and  O_8 
REMARK    3  A    between atoms: O_8  and  C_9 
REMARK       I    between atoms: C_9  and  N_10 
REMARK    4  A    between atoms: C_23  and  O_24 
REMARK    5  A    between atoms: C_23  and  O_25 
ROOT
ATOM      1  N           0     136.042 134.709 147.770  0.00  0.00    -0.235 N 
ATOM      2  H           0     135.203 134.613 148.246  0.00  0.00     0.174 HD
ATOM      3  H           0     136.571 135.516 147.875  0.00  0.00     0.174 HD
ATOM      4  C           0     136.464 133.751 146.991  0.00  0.00     0.672 C 
ATOM      5  N           0     135.750 132.579 146.812  0.00  0.00    -0.218 N 
ATOM      6  C           0     135.897 131.866 145.547  0.00  0.00     0.151 C 
ATOM      7  C           0     137.348 131.625 145.178  0.00  0.00     0.180 C 
ATOM      8  N           0     137.877 130.509 145.990  0.00  0.00    -0.216 N 
ATOM      9  C           0     139.162 130.831 146.351  0.00  0.00     0.670 C 
ATOM     10  N           0     140.051 129.965 146.747  0.00  0.00    -0.235 N 
ATOM     11  H           0     139.820 129.024 146.802  0.00  0.00     0.174 HD
ATOM     12  H           0     140.943 130.260 146.988  0.00  0.00     0.174 HD
ATOM     13  C           0     138.273 132.786 145.505  0.00  0.00     0.217 C 
ATOM     14  N           0     139.395 132.179 146.241  0.00  0.00    -0.191 N 
ATOM     15  N           0     137.640 133.842 146.294  0.00  0.00    -0.183 N 
ATOM     16  C           0     138.502 135.026 146.124  0.00  0.00     0.150 C 
ATOM     17  C           0     138.947 134.968 144.643  0.00  0.00     0.093 C 
ATOM     18  C           0     138.796 133.480 144.236  0.00  0.00     0.209 C 
ATOM     19  H           0     135.167 132.241 147.509  0.00  0.00     0.178 HD
ATOM     20  H           0     137.403 129.695 146.225  0.00  0.00     0.178 HD
ATOM     21  H           0     140.168 132.652 146.588  0.00  0.00     0.180 HD
ENDROOT
BRANCH   6  22
ATOM     22  C           0     135.236 132.687 144.438  0.00  0.00     0.208 C 
BRANCH  22  23
ATOM     23  O           0     135.280 131.943 143.193  0.00  0.00    -0.302 OA
BRANCH  23  24
ATOM     24  C           0     134.775 132.483 142.067  0.00  0.00     0.358 C 
ATOM     25  N           0     135.592 133.100 141.190  0.00  0.00    -0.346 N 
ATOM     26  H           0     136.544 133.155 141.370  0.00  0.00     0.161 HD
ATOM     27  H           0     135.228 133.489 140.380  0.00  0.00     0.161 HD
ATOM     28  O           0     133.583 132.413 141.842  0.00  0.00    -0.239 OA
ENDBRANCH  23  24
ENDBRANCH  22  23
ENDBRANCH   6  22
BRANCH  18  29
ATOM     29  O           0     140.061 132.939 143.851  0.00  0.00    -0.362 OA
ATOM     30  H           0     139.942 131.983 143.764  0.00  0.00     0.213 HD
ENDBRANCH  18  29
BRANCH  18  31
ATOM     31  O           0     137.851 133.347 143.172  0.00  0.00    -0.362 OA
ATOM     32  H           0     137.674 134.239 142.843  0.00  0.00     0.213 HD
ENDBRANCH  18  31
TORSDOF 5
ENDMDL
MODEL 3
REMARK VINA RESULT:      -7.1      1.717      2.097
REMARK  5 active torsions:
REMARK  status: ('A' for Active; 'I' for Inactive)
REMARK    1  A    between atoms: C_6  and  C_7 
REMARK    2  A    between atoms: C_7  and  O_8 
REMARK    3  A    between atoms: O_8  and  C_9 
REMARK       I    between atoms: C_9  and  N_10 
REMARK    4  A    between atoms: C_23  and  O_24 
REMARK    5  A    between atoms: C_23  and  O_25 
ROOT
ATOM      1  N           0     135.961 134.620 147.043  0.00  0.00    -0.235 N 
ATOM      2  H           0     136.356 135.462 147.317  0.00  0.00     0.174 HD
ATOM      3  H           0     135.493 134.070 147.691  0.00  0.00     0.174 HD
ATOM      4  C           0     136.055 134.227 145.803  0.00  0.00     0.672 C 
ATOM      5  N           0     136.708 134.977 144.840  0.00  0.00    -0.218 N 
ATOM      6  C           0     137.316 134.276 143.713  0.00  0.00     0.151 C 
ATOM      7  C           0     136.356 133.321 143.032  0.00  0.00     0.180 C 
ATOM      8  N           0     135.422 134.092 142.184  0.00  0.00    -0.216 N 
ATOM      9  C           0     134.180 133.521 142.310  0.00  0.00     0.670 C 
ATOM     10  N           0     133.206 133.691 141.460  0.00  0.00    -0.235 N 
ATOM     11  H           0     133.337 134.250 140.679  0.00  0.00     0.174 HD
ATOM     12  H           0     132.351 133.257 141.609  0.00  0.00     0.174 HD
ATOM     13  C           0     135.444 132.569 143.988  0.00  0.00     0.217 C 
ATOM     14  N           0     134.089 132.749 143.441  0.00  0.00    -0.191 N 
ATOM     15  N           0     135.518 133.042 145.371  0.00  0.00    -0.183 N 
ATOM     16  C           0     134.951 131.954 146.187  0.00  0.00     0.150 C 
ATOM     17  C           0     135.463 130.660 145.510  0.00  0.00     0.093 C 
ATOM     18  C           0     135.787 131.070 144.051  0.00  0.00     0.209 C 
ATOM     19  H           0     136.759 135.942 144.912  0.00  0.00     0.178 HD
ATOM     20  H           0     135.646 134.862 141.638  0.00  0.00     0.178 HD
ATOM     21  H           0     133.273 132.383 143.815  0.00  0.00     0.180 HD
ENDROOT
BRANCH   6  22
ATOM     22  C           0     138.524 133.484 144.218  0.00  0.00     0.208 C 
BRANCH  22  23
ATOM     23  O           0     139.229 134.262 145.220  0.00  0.00    -0.302 OA
BRANCH  23  24
ATOM     24  C           0     139.630 133.679 146.366  0.00  0.00     0.358 C 
ATOM     25  N           0     140.764 132.952 146.391  0.00  0.00    -0.346 N 
ATOM     26  H           0     141.292 132.848 145.584  0.00  0.00     0.161 HD
ATOM     27  H           0     141.053 132.531 147.217  0.00  0.00     0.161 HD
ATOM     28  O           0     138.969 133.810 147.377  0.00  0.00    -0.239 OA
ENDBRANCH  23  24
ENDBRANCH  22  23
ENDBRANCH   6  22
BRANCH  18  29
ATOM     29  O           0     134.979 130.330 143.134  0.00  0.00    -0.362 OA
ATOM     30  H           0     134.907 130.864 142.331  0.00  0.00     0.213 HD
ENDBRANCH  18  29
BRANCH  18  31
ATOM     31  O           0     137.174 130.866 143.772  0.00  0.00    -0.362 OA
ATOM     32  H           0     137.267 129.949 143.477  0.00  0.00     0.213 HD
ENDBRANCH  18  31
TORSDOF 5
ENDMDL
MODEL 4
REMARK VINA RESULT:      -7.1      1.993      4.709
REMARK  5 active torsions:
REMARK  status: ('A' for Active; 'I' for Inactive)
REMARK    1  A    between atoms: C_6  and  C_7 
REMARK    2  A    between atoms: C_7  and  O_8 
REMARK    3  A    between atoms: O_8  and  C_9 
REMARK       I    between atoms: C_9  and  N_10 
REMARK    4  A    between atoms: C_23  and  O_24 
REMARK    5  A    between atoms: C_23  and  O_25 
ROOT
ATOM      1  N           0     135.407 135.227 143.010  0.00  0.00    -0.235 N 
ATOM      2  H           0     134.465 135.451 143.074  0.00  0.00     0.174 HD
ATOM      3  H           0     135.870 135.321 142.162  0.00  0.00     0.174 HD
ATOM      4  C           0     136.051 134.804 144.061  0.00  0.00     0.672 C 
ATOM      5  N           0     135.436 134.658 145.292  0.00  0.00    -0.218 N 
ATOM      6  C           0     135.960 133.652 146.212  0.00  0.00     0.151 C 
ATOM      7  C           0     137.458 133.771 146.416  0.00  0.00     0.180 C 
ATOM      8  N           0     137.737 134.900 147.326  0.00  0.00    -0.216 N 
ATOM      9  C           0     138.854 135.546 146.856  0.00  0.00     0.670 C 
ATOM     10  N           0     139.597 136.342 147.572  0.00  0.00    -0.235 N 
ATOM     11  H           0     139.371 136.509 148.501  0.00  0.00     0.174 HD
ATOM     12  H           0     140.374 136.767 147.177  0.00  0.00     0.174 HD
ATOM     13  C           0     138.231 134.118 145.154  0.00  0.00     0.217 C 
ATOM     14  N           0     139.092 135.249 145.537  0.00  0.00    -0.191 N 
ATOM     15  N           0     137.379 134.470 144.017  0.00  0.00    -0.183 N 
ATOM     16  C           0     138.239 134.330 142.828  0.00  0.00     0.150 C 
ATOM     17  C           0     139.102 133.080 143.124  0.00  0.00     0.093 C 
ATOM     18  C           0     139.097 132.943 144.668  0.00  0.00     0.209 C 
ATOM     19  H           0     134.678 135.210 145.538  0.00  0.00     0.178 HD
ATOM     20  H           0     137.225 135.143 148.114  0.00  0.00     0.178 HD
ATOM     21  H           0     139.723 135.705 144.958  0.00  0.00     0.180 HD
ENDROOT
BRANCH   6  22
ATOM     22  C           0     135.646 132.263 145.654  0.00  0.00     0.208 C 
BRANCH  22  23
ATOM     23  O           0     134.804 132.391 144.479  0.00  0.00    -0.302 OA
BRANCH  23  24
ATOM     24  C           0     134.965 131.550 143.440  0.00  0.00     0.358 C 
ATOM     25  N           0     136.161 130.967 143.224  0.00  0.00    -0.346 N 
ATOM     26  H           0     136.905 131.152 143.818  0.00  0.00     0.161 HD
ATOM     27  H           0     136.277 130.362 142.475  0.00  0.00     0.161 HD
ATOM     28  O           0     134.032 131.318 142.696  0.00  0.00    -0.239 OA
ENDBRANCH  23  24
ENDBRANCH  22  23
ENDBRANCH   6  22
BRANCH  18  29
ATOM     29  O           0     140.426 133.051 145.181  0.00  0.00    -0.362 OA
ATOM     30  H           0     140.705 132.157 145.424  0.00  0.00     0.213 HD
ENDBRANCH  18  29
BRANCH  18  31
ATOM     31  O           0     138.510 131.700 145.056  0.00  0.00    -0.362 OA
ATOM     32  H           0     138.399 131.179 144.249  0.00  0.00     0.213 HD
ENDBRANCH  18  31
TORSDOF 5
ENDMDL
MODEL 5
REMARK VINA RESULT:      -7.1      3.105      4.902
REMARK  5 active torsions:
REMARK  status: ('A' for Active; 'I' for Inactive)
REMARK    1  A    between atoms: C_6  and  C_7 
REMARK    2  A    between atoms: C_7  and  O_8 
REMARK    3  A    between atoms: O_8  and  C_9 
REMARK       I    between atoms: C_9  and  N_10 
REMARK    4  A    between atoms: C_23  and  O_24 
REMARK    5  A    between atoms: C_23  and  O_25 
ROOT
ATOM      1  N           0     139.107 130.432 145.981  0.00  0.00    -0.235 N 
ATOM      2  H           0     139.272 129.584 146.422  0.00  0.00     0.174 HD
ATOM      3  H           0     139.845 130.930 145.594  0.00  0.00     0.174 HD
ATOM      4  C           0     137.893 130.901 145.902  0.00  0.00     0.672 C 
ATOM      5  N           0     136.807 130.226 146.432  0.00  0.00    -0.218 N 
ATOM      6  C           0     135.656 131.008 146.873  0.00  0.00     0.151 C 
ATOM      7  C           0     135.169 131.979 145.815  0.00  0.00     0.180 C 
ATOM      8  N           0     134.405 131.238 144.790  0.00  0.00    -0.216 N 
ATOM      9  C           0     134.730 131.770 143.566  0.00  0.00     0.670 C 
ATOM     10  N           0     134.007 131.629 142.490  0.00  0.00    -0.235 N 
ATOM     11  H           0     133.182 131.120 142.525  0.00  0.00     0.174 HD
ATOM     12  H           0     134.295 132.032 141.656  0.00  0.00     0.174 HD
ATOM     13  C           0     136.283 132.650 145.028  0.00  0.00     0.217 C 
ATOM     14  N           0     135.910 132.470 143.615  0.00  0.00    -0.191 N 
ATOM     15  N           0     137.611 132.096 145.293  0.00  0.00    -0.183 N 
ATOM     16  C           0     138.562 133.119 144.823  0.00  0.00     0.150 C 
ATOM     17  C           0     137.906 134.464 145.219  0.00  0.00     0.093 C 
ATOM     18  C           0     136.394 134.150 145.352  0.00  0.00     0.209 C 
ATOM     19  H           0     136.811 129.260 146.508  0.00  0.00     0.178 HD
ATOM     20  H           0     133.787 130.508 144.951  0.00  0.00     0.178 HD
ATOM     21  H           0     136.410 132.793 142.850  0.00  0.00     0.180 HD
ENDROOT
BRANCH   6  22
ATOM     22  C           0     136.045 131.797 148.125  0.00  0.00     0.208 C 
BRANCH  22  23
ATOM     23  O           0     134.853 132.358 148.735  0.00  0.00    -0.302 OA
BRANCH  23  24
ATOM     24  C           0     133.954 131.548 149.326  0.00  0.00     0.358 C 
ATOM     25  N           0     132.645 131.665 149.030  0.00  0.00    -0.346 N 
ATOM     26  H           0     132.349 132.332 148.391  0.00  0.00     0.161 HD
ATOM     27  H           0     131.997 131.082 149.457  0.00  0.00     0.161 HD
ATOM     28  O           0     134.325 130.711 150.126  0.00  0.00    -0.239 OA
ENDBRANCH  23  24
ENDBRANCH  22  23
ENDBRANCH   6  22
BRANCH  18  29
ATOM     29  O           0     135.641 134.924 144.417  0.00  0.00    -0.362 OA
ATOM     30  H           0     135.058 135.498 144.933  0.00  0.00     0.213 HD
ENDBRANCH  18  29
BRANCH  18  31
ATOM     31  O           0     135.947 134.404 146.685  0.00  0.00    -0.362 OA
ATOM     32  H           0     135.199 135.013 146.618  0.00  0.00     0.213 HD
ENDBRANCH  18  31
TORSDOF 5
ENDMDL
MODEL 6
REMARK VINA RESULT:      -6.9      2.444      5.575
REMARK  5 active torsions:
REMARK  status: ('A' for Active; 'I' for Inactive)
REMARK    1  A    between atoms: C_6  and  C_7 
REMARK    2  A    between atoms: C_7  and  O_8 
REMARK    3  A    between atoms: O_8  and  C_9 
REMARK       I    between atoms: C_9  and  N_10 
REMARK    4  A    between atoms: C_23  and  O_24 
REMARK    5  A    between atoms: C_23  and  O_25 
ROOT
ATOM      1  N           0     133.995 131.692 148.333  0.00  0.00    -0.235 N 
ATOM      2  H           0     133.219 131.135 148.166  0.00  0.00     0.174 HD
ATOM      3  H           0     134.051 132.214 149.149  0.00  0.00     0.174 HD
ATOM      4  C           0     134.966 131.737 147.464  0.00  0.00     0.672 C 
ATOM      5  N           0     134.936 131.008 146.287  0.00  0.00    -0.218 N 
ATOM      6  C           0     135.658 131.530 145.131  0.00  0.00     0.151 C 
ATOM      7  C           0     137.094 131.892 145.454  0.00  0.00     0.180 C 
ATOM      8  N           0     137.901 130.656 145.532  0.00  0.00    -0.216 N 
ATOM      9  C           0     138.781 130.801 146.577  0.00  0.00     0.670 C 
ATOM     10  N           0     139.867 130.095 146.723  0.00  0.00    -0.235 N 
ATOM     11  H           0     140.096 129.417 146.069  0.00  0.00     0.174 HD
ATOM     12  H           0     140.446 130.249 147.486  0.00  0.00     0.174 HD
ATOM     13  C           0     137.281 132.537 146.818  0.00  0.00     0.217 C 
ATOM     14  N           0     138.375 131.781 147.449  0.00  0.00    -0.191 N 
ATOM     15  N           0     136.079 132.514 147.652  0.00  0.00    -0.183 N 
ATOM     16  C           0     136.304 133.537 148.690  0.00  0.00     0.150 C 
ATOM     17  C           0     137.021 134.688 147.944  0.00  0.00     0.093 C 
ATOM     18  C           0     137.670 134.021 146.704  0.00  0.00     0.209 C 
ATOM     19  H           0     134.448 130.172 146.234  0.00  0.00     0.178 HD
ATOM     20  H           0     137.824 129.883 144.951  0.00  0.00     0.178 HD
ATOM     21  H           0     138.748 131.948 148.328  0.00  0.00     0.180 HD
ENDROOT
BRANCH   6  22
ATOM     22  C           0     134.937 132.780 144.622  0.00  0.00     0.208 C 
BRANCH  22  23
ATOM     23  O           0     135.575 133.245 143.405  0.00  0.00    -0.302 OA
BRANCH  23  24
ATOM     24  C           0     135.117 132.836 142.206  0.00  0.00     0.358 C 
ATOM     25  N           0     135.833 133.085 141.091  0.00  0.00    -0.346 N 
ATOM     26  H           0     136.677 133.559 141.152  0.00  0.00     0.161 HD
ATOM     27  H           0     135.503 132.791 140.227  0.00  0.00     0.161 HD
ATOM     28  O           0     134.060 132.243 142.130  0.00  0.00    -0.239 OA
ENDBRANCH  23  24
ENDBRANCH  22  23
ENDBRANCH   6  22
BRANCH  18  29
ATOM     29  O           0     139.090 134.174 146.743  0.00  0.00    -0.362 OA
ATOM     30  H           0     139.426 133.890 145.882  0.00  0.00     0.213 HD
ENDBRANCH  18  29
BRANCH  18  31
ATOM     31  O           0     137.140 134.583 145.501  0.00  0.00    -0.362 OA
ATOM     32  H           0     137.852 135.097 145.096  0.00  0.00     0.213 HD
ENDBRANCH  18  31
TORSDOF 5
ENDMDL
MODEL 7
REMARK VINA RESULT:      -6.9      2.613      4.965
REMARK  5 active torsions:
REMARK  status: ('A' for Active; 'I' for Inactive)
REMARK    1  A    between atoms: C_6  and  C_7 
REMARK    2  A    between atoms: C_7  and  O_8 
REMARK    3  A    between atoms: O_8  and  C_9 
REMARK       I    between atoms: C_9  and  N_10 
REMARK    4  A    between atoms: C_23  and  O_24 
REMARK    5  A    between atoms: C_23  and  O_25 
ROOT
ATOM      1  N           0     140.368 131.263 146.308  0.00  0.00    -0.235 N 
ATOM      2  H           0     141.073 130.929 145.733  0.00  0.00     0.174 HD
ATOM      3  H           0     140.142 130.788 147.124  0.00  0.00     0.174 HD
ATOM      4  C           0     139.727 132.352 145.989  0.00  0.00     0.672 C 
ATOM      5  N           0     140.016 133.068 144.840  0.00  0.00    -0.218 N 
ATOM      6  C           0     138.945 133.844 144.222  0.00  0.00     0.151 C 
ATOM      7  C           0     138.238 134.753 145.208  0.00  0.00     0.180 C 
ATOM      8  N           0     139.085 135.935 145.473  0.00  0.00    -0.216 N 
ATOM      9  C           0     138.985 136.224 146.812  0.00  0.00     0.670 C 
ATOM     10  N           0     139.288 137.378 147.338  0.00  0.00    -0.235 N 
ATOM     11  H           0     139.606 138.099 146.772  0.00  0.00     0.174 HD
ATOM     12  H           0     139.193 137.516 148.293  0.00  0.00     0.174 HD
ATOM     13  C           0     138.029 134.137 146.582  0.00  0.00     0.217 C 
ATOM     14  N           0     138.526 135.148 147.530  0.00  0.00    -0.191 N 
ATOM     15  N           0     138.719 132.860 146.767  0.00  0.00    -0.183 N 
ATOM     16  C           0     138.060 132.225 147.923  0.00  0.00     0.150 C 
ATOM     17  C           0     136.562 132.574 147.749  0.00  0.00     0.093 C 
ATOM     18  C           0     136.545 133.844 146.861  0.00  0.00     0.209 C 
ATOM     19  H           0     140.906 133.054 144.457  0.00  0.00     0.178 HD
ATOM     20  H           0     139.615 136.420 144.821  0.00  0.00     0.178 HD
ATOM     21  H           0     138.527 135.067 148.496  0.00  0.00     0.180 HD
ENDROOT
BRANCH   6  22
ATOM     22  C           0     137.922 132.881 143.618  0.00  0.00     0.208 C 
BRANCH  22  23
ATOM     23  O           0     136.958 133.627 142.831  0.00  0.00    -0.302 OA
BRANCH  23  24
ATOM     24  C           0     135.924 132.990 142.249  0.00  0.00     0.358 C 
ATOM     25  N           0     135.668 133.177 140.939  0.00  0.00    -0.346 N 
ATOM     26  H           0     136.228 133.771 140.415  0.00  0.00     0.161 HD
ATOM     27  H           0     134.923 132.718 140.520  0.00  0.00     0.161 HD
ATOM     28  O           0     135.223 132.245 142.906  0.00  0.00    -0.239 OA
ENDBRANCH  23  24
ENDBRANCH  22  23
ENDBRANCH   6  22
BRANCH  18  29
ATOM     29  O           0     135.940 134.932 147.561  0.00  0.00    -0.362 OA
ATOM     30  H           0     136.598 135.260 148.190  0.00  0.00     0.213 HD
ENDBRANCH  18  29
BRANCH  18  31
ATOM     31  O           0     135.851 133.588 145.638  0.00  0.00    -0.362 OA
ATOM     32  H           0     136.517 133.570 144.937  0.00  0.00     0.213 HD
ENDBRANCH  18  31
TORSDOF 5
ENDMDL
MODEL 8
REMARK VINA RESULT:      -6.9      1.845      5.427
REMARK  5 active torsions:
REMARK  status: ('A' for Active; 'I' for Inactive)
REMARK    1  A    between atoms: C_6  and  C_7 
REMARK    2  A    between atoms: C_7  and  O_8 
REMARK    3  A    between atoms: O_8  and  C_9 
REMARK       I    between atoms: C_9  and  N_10 
REMARK    4  A    between atoms: C_23  and  O_24 
REMARK    5  A    between atoms: C_23  and  O_25 
ROOT
ATOM      1  N           0     136.686 135.650 143.487  0.00  0.00    -0.235 N 
ATOM      2  H           0     135.970 136.056 142.976  0.00  0.00     0.174 HD
ATOM      3  H           0     137.588 136.002 143.423  0.00  0.00     0.174 HD
ATOM      4  C           0     136.439 134.632 144.263  0.00  0.00     0.672 C 
ATOM      5  N           0     135.169 134.096 144.392  0.00  0.00    -0.218 N 
ATOM      6  C           0     135.047 132.679 144.725  0.00  0.00     0.151 C 
ATOM      7  C           0     135.876 132.290 145.933  0.00  0.00     0.180 C 
ATOM      8  N           0     135.190 132.745 147.161  0.00  0.00    -0.216 N 
ATOM      9  C           0     136.151 133.215 148.022  0.00  0.00     0.670 C 
ATOM     10  N           0     135.977 133.358 149.306  0.00  0.00    -0.235 N 
ATOM     11  H           0     135.126 133.124 149.709  0.00  0.00     0.174 HD
ATOM     12  H           0     136.699 133.696 149.858  0.00  0.00     0.174 HD
ATOM     13  C           0     137.235 132.969 146.000  0.00  0.00     0.217 C 
ATOM     14  N           0     137.317 133.518 147.364  0.00  0.00    -0.191 N 
ATOM     15  N           0     137.419 134.021 145.000  0.00  0.00    -0.183 N 
ATOM     16  C           0     138.876 134.231 144.920  0.00  0.00     0.150 C 
ATOM     17  C           0     139.476 132.810 145.047  0.00  0.00     0.093 C 
ATOM     18  C           0     138.386 131.976 145.766  0.00  0.00     0.209 C 
ATOM     19  H           0     134.382 134.647 144.266  0.00  0.00     0.178 HD
ATOM     20  H           0     134.235 132.717 147.328  0.00  0.00     0.178 HD
ATOM     21  H           0     138.068 134.007 147.735  0.00  0.00     0.180 HD
ENDROOT
BRANCH   6  22
ATOM     22  C           0     135.505 131.849 143.524  0.00  0.00     0.208 C 
BRANCH  22  23
ATOM     23  O           0     134.360 131.528 142.692  0.00  0.00    -0.302 OA
BRANCH  23  24
ATOM     24  C           0     133.820 132.470 141.896  0.00  0.00     0.358 C 
ATOM     25  N           0     132.486 132.507 141.706  0.00  0.00    -0.346 N 
ATOM     26  H           0     131.915 131.855 142.142  0.00  0.00     0.161 HD
ATOM     27  H           0     132.097 133.185 141.132  0.00  0.00     0.161 HD
ATOM     28  O           0     134.535 133.286 141.350  0.00  0.00    -0.239 OA
ENDBRANCH  23  24
ENDBRANCH  22  23
ENDBRANCH   6  22
BRANCH  18  29
ATOM     29  O           0     138.881 131.477 147.010  0.00  0.00    -0.362 OA
ATOM     30  H           0     138.162 130.971 147.415  0.00  0.00     0.213 HD
ENDBRANCH  18  29
BRANCH  18  31
ATOM     31  O           0     137.952 130.899 144.933  0.00  0.00    -0.362 OA
ATOM     32  H           0     138.725 130.339 144.775  0.00  0.00     0.213 HD
ENDBRANCH  18  31
TORSDOF 5
ENDMDL
MODEL 9
REMARK VINA RESULT:      -6.8      8.357     10.683
REMARK  5 active torsions:
REMARK  status: ('A' for Active; 'I' for Inactive)
REMARK    1  A    between atoms: C_6  and  C_7 
REMARK    2  A    between atoms: C_7  and  O_8 
REMARK    3  A    between atoms: O_8  and  C_9 
REMARK       I    between atoms: C_9  and  N_10 
REMARK    4  A    between atoms: C_23  and  O_24 
REMARK    5  A    between atoms: C_23  and  O_25 
ROOT
ATOM      1  N           0     131.300 132.188 135.070  0.00  0.00    -0.235 N 
ATOM      2  H           0     130.724 131.880 135.787  0.00  0.00     0.174 HD
ATOM      3  H           0     131.651 131.555 134.424  0.00  0.00     0.174 HD
ATOM      4  C           0     131.601 133.453 134.972  0.00  0.00     0.672 C 
ATOM      5  N           0     131.123 134.395 135.866  0.00  0.00    -0.218 N 
ATOM      6  C           0     131.926 135.590 136.107  0.00  0.00     0.151 C 
ATOM      7  C           0     132.337 136.286 134.824  0.00  0.00     0.180 C 
ATOM      8  N           0     131.185 137.041 134.289  0.00  0.00    -0.216 N 
ATOM      9  C           0     131.191 136.895 132.923  0.00  0.00     0.670 C 
ATOM     10  N           0     130.567 137.688 132.099  0.00  0.00    -0.235 N 
ATOM     11  H           0     130.055 138.438 132.442  0.00  0.00     0.174 HD
ATOM     12  H           0     130.613 137.529 131.143  0.00  0.00     0.174 HD
ATOM     13  C           0     132.710 135.338 133.695  0.00  0.00     0.217 C 
ATOM     14  N           0     131.938 135.812 132.533  0.00  0.00    -0.191 N 
ATOM     15  N           0     132.416 133.934 133.981  0.00  0.00    -0.183 N 
ATOM     16  C           0     133.226 133.162 133.021  0.00  0.00     0.150 C 
ATOM     17  C           0     134.561 133.942 132.932  0.00  0.00     0.093 C 
ATOM     18  C           0     134.214 135.386 133.377  0.00  0.00     0.209 C 
ATOM     19  H           0     130.276 134.265 136.319  0.00  0.00     0.178 HD
ATOM     20  H           0     130.540 137.547 134.808  0.00  0.00     0.178 HD
ATOM     21  H           0     131.957 135.425 131.644  0.00  0.00     0.180 HD
ENDROOT
BRANCH   6  22
ATOM     22  C           0     133.186 135.191 136.877  0.00  0.00     0.208 C 
BRANCH  22  23
ATOM     23  O           0     132.818 134.370 138.016  0.00  0.00    -0.302 OA
BRANCH  23  24
ATOM     24  C           0     132.968 134.847 139.267  0.00  0.00     0.358 C 
ATOM     25  N           0     133.527 136.057 139.464  0.00  0.00    -0.346 N 
ATOM     26  H           0     133.822 136.585 138.705  0.00  0.00     0.161 HD
ATOM     27  H           0     133.636 136.401 140.365  0.00  0.00     0.161 HD
ATOM     28  O           0     132.598 134.186 140.217  0.00  0.00    -0.239 OA
ENDBRANCH  23  24
ENDBRANCH  22  23
ENDBRANCH   6  22
BRANCH  18  29
ATOM     29  O           0     134.477 136.309 132.319  0.00  0.00    -0.362 OA
ATOM     30  H           0     134.995 137.031 132.701  0.00  0.00     0.213 HD
ENDBRANCH  18  29
BRANCH  18  31
ATOM     31  O           0     134.958 135.739 134.545  0.00  0.00    -0.362 OA
ATOM     32  H           0     135.789 135.247 134.506  0.00  0.00     0.213 HD
ENDBRANCH  18  31
TORSDOF 5
ENDMDL
