# created with PyMOL 2.3.4
@<TRIPOS>MOLECULE
ligand_out_0001
32 34 1                 
SMALL
USER_CHARGES
@<TRIPOS>ATOM
1	   N	135.482	132.652	147.029	N.3	1	UNK0	-0.235	
2	   N	136.733	134.417	146.104	N.3	1	UNK0	-0.218	
3	   N	136.145	136.113	143.601	N.3	1	UNK0	-0.216	
4	   N	134.177	136.806	142.484	N.3	1	UNK0	-0.235	
5	   N	134.573	134.555	143.089	N.3	1	UNK0	-0.191	
6	   N	135.487	133.017	144.717	N.3	1	UNK0	-0.183	
7	   N	140.801	132.192	147.402	N.pl3	1	UNK0	-0.346	
8	   C	135.881	133.332	145.991	C.3	1	UNK0	0.672	
9	   C	137.609	134.729	144.979	C.3	1	UNK0	0.151	
10	   C	136.860	134.821	143.664	C.3	1	UNK0	0.180	
11	   C	134.920	135.881	143.025	C.3	1	UNK0	0.670	
12	   C	135.759	133.786	143.502	C.3	1	UNK0	0.217	
13	   C	134.760	131.817	144.265	C.3	1	UNK0	0.150	
14	   C	135.445	131.433	142.931	C.3	1	UNK0	0.093	
15	   C	136.105	132.741	142.426	C.3	1	UNK0	0.209	
16	   C	138.673	133.636	144.865	C.2	1	UNK0	0.208	
17	   C	140.473	132.721	146.206	C.2	1	UNK0	0.358	
18	   O	139.422	133.557	146.105	O.2	1	UNK0	-0.302	
19	   O	141.125	132.443	145.219	O.co2	1	UNK0	-0.239	
20	   O	135.556	133.120	141.163	O.2	1	UNK0	-0.362	
21	   O	137.521	132.580	142.328	O.2	1	UNK0	-0.362	
22	   H	135.783	132.899	147.917	 H	1	UNK0	0.174	
23	   H	134.882	131.898	146.914	 H	1	UNK0	0.174	
24	   H	134.483	137.727	142.472	 H	1	UNK0	0.174	
25	   H	133.321	136.574	142.094	 H	1	UNK0	0.174	
26	   H	136.747	134.956	146.910	 H	1	UNK0	0.178	
27	   H	136.479	136.970	143.910	 H	1	UNK0	0.178	
28	   H	133.697	134.187	142.893	 H	1	UNK0	0.180	
29	   H	140.280	132.413	148.190	 H	1	UNK0	0.161	
30	   H	141.558	131.590	147.475	 H	1	UNK0	0.161	
31	   H	134.813	133.712	141.347	 H	1	UNK0	0.213	
32	   H	137.884	132.762	143.206	 H	1	UNK0	0.213	
@<TRIPOS>BOND
1 1 8 1
2 1 22 1
3 1 23 1
4 2 9 1
5 2 26 1
6 3 11 1
7 3 27 1
8 4 24 1
9 4 25 1
10 5 28 1
11 6 13 1
12 7 29 1
13 7 30 1
14 2 8 1
15 6 8 1
16 9 10 1
17 9 16 1
18 3 10 1
19 10 12 1
20 4 11 1
21 5 11 1
22 5 12 1
23 6 12 1
24 12 15 1
25 13 14 1
26 14 15 1
27 15 20 2
28 15 21 2
29 16 18 2
30 7 17 1
31 17 19 2
32 17 18 2
33 20 31 1
34 21 32 1
@<TRIPOS>SUBSTRUCTURE
1	UNK0	1	GROUP	1 ****	UNK
