MODEL 1
REMARK VINA RESULT:      -7.4      0.000      0.000
REMARK  5 active torsions:
REMARK  status: ('A' for Active; 'I' for Inactive)
REMARK    1  A    between atoms: C_6  and  C_7 
REMARK    2  A    between atoms: C_7  and  O_8 
REMARK    3  A    between atoms: O_8  and  C_9 
REMARK       I    between atoms: C_9  and  N_10 
REMARK    4  A    between atoms: C_24  and  O_25 
REMARK    5  A    between atoms: C_24  and  O_26 
ROOT
ATOM      1  N           0     135.263 136.751 143.269  0.00  0.00    -0.235 N 
ATOM      2  H           0     134.503 137.311 143.040  0.00  0.00     0.174 HD
ATOM      3  H           0     136.132 137.152 143.420  0.00  0.00     0.174 HD
ATOM      4  C           0     135.110 135.462 143.380  0.00  0.00     0.672 C 
ATOM      5  N           0     133.888 134.843 143.180  0.00  0.00    -0.218 N 
ATOM      6  C           0     133.881 133.463 142.705  0.00  0.00     0.151 C 
ATOM      7  C           0     134.766 132.554 143.536  0.00  0.00     0.180 C 
ATOM      8  N           0     134.079 132.232 144.804  0.00  0.00    -0.216 N 
ATOM      9  C           0     135.024 132.245 145.801  0.00  0.00     0.670 C 
ATOM     10  N           0     134.872 131.668 146.960  0.00  0.00    -0.235 N 
ATOM     11  H           0     134.052 131.192 147.162  0.00  0.00     0.174 HD
ATOM     12  H           0     135.580 131.715 147.622  0.00  0.00     0.174 HD
ATOM     13  C           0     136.072 133.196 143.979  0.00  0.00     0.217 C 
ATOM     14  N           0     136.147 132.939 145.427  0.00  0.00    -0.191 N 
ATOM     15  N           0     136.152 134.629 143.697  0.00  0.00    -0.183 N 
ATOM     16  C           0     137.587 134.960 143.767  0.00  0.00     0.150 C 
ATOM     17  C           0     138.294 133.742 143.130  0.00  0.00     0.093 C 
ATOM     18  C           0     137.288 132.572 143.274  0.00  0.00     0.209 C 
ATOM     19  H           0     133.058 135.316 143.352  0.00  0.00     0.178 HD
ATOM     20  H           0     133.133 132.046 144.913  0.00  0.00     0.178 HD
ATOM     21  H           0     136.868 133.212 146.015  0.00  0.00     0.180 HD
ENDROOT
BRANCH   6  22
ATOM     22  C           0     134.370 133.437 141.256  0.00  0.00     0.208 C 
BRANCH  22  23
ATOM     23  O           0     133.939 134.646 140.578  0.00  0.00    -0.302 OA
BRANCH  23  24
ATOM     24  C           0     133.319 134.565 139.385  0.00  0.00     0.360 C 
ATOM     25  N           0     133.746 135.315 138.350  0.00  0.00    -0.341 N 
ATOM     26  C           0     133.071 135.227 137.054  0.00  0.00     0.151 C 
ATOM     27  H           0     134.501 135.914 138.465  0.00  0.00     0.164 HD
ATOM     28  O           0     132.373 133.815 139.242  0.00  0.00    -0.239 OA
ENDBRANCH  23  24
ENDBRANCH  22  23
ENDBRANCH   6  22
BRANCH  18  29
ATOM     29  O           0     137.850 131.526 144.070  0.00  0.00    -0.362 OA
ATOM     30  H           0     137.134 131.175 144.617  0.00  0.00     0.213 HD
ENDBRANCH  18  29
BRANCH  18  31
ATOM     31  O           0     136.915 132.074 141.988  0.00  0.00    -0.362 OA
ATOM     32  H           0     137.644 131.518 141.681  0.00  0.00     0.213 HD
ENDBRANCH  18  31
TORSDOF 5
ENDMDL
MODEL 2
REMARK VINA RESULT:      -7.2      2.756      4.682
REMARK  5 active torsions:
REMARK  status: ('A' for Active; 'I' for Inactive)
REMARK    1  A    between atoms: C_6  and  C_7 
REMARK    2  A    between atoms: C_7  and  O_8 
REMARK    3  A    between atoms: O_8  and  C_9 
REMARK       I    between atoms: C_9  and  N_10 
REMARK    4  A    between atoms: C_24  and  O_25 
REMARK    5  A    between atoms: C_24  and  O_26 
ROOT
ATOM      1  N           0     139.689 130.549 146.217  0.00  0.00    -0.235 N 
ATOM      2  H           0     140.475 130.692 145.666  0.00  0.00     0.174 HD
ATOM      3  H           0     139.676 129.828 146.866  0.00  0.00     0.174 HD
ATOM      4  C           0     138.654 131.329 146.089  0.00  0.00     0.672 C 
ATOM      5  N           0     138.625 132.374 145.182  0.00  0.00    -0.218 N 
ATOM      6  C           0     137.334 132.786 144.640  0.00  0.00     0.151 C 
ATOM      7  C           0     136.301 133.041 145.721  0.00  0.00     0.180 C 
ATOM      8  N           0     136.571 134.349 146.355  0.00  0.00    -0.216 N 
ATOM      9  C           0     136.347 134.210 147.703  0.00  0.00     0.670 C 
ATOM     10  N           0     136.134 135.206 148.516  0.00  0.00    -0.235 N 
ATOM     11  H           0     136.126 136.115 148.177  0.00  0.00     0.174 HD
ATOM     12  H           0     135.983 135.040 149.459  0.00  0.00     0.174 HD
ATOM     13  C           0     136.358 132.055 146.879  0.00  0.00     0.217 C 
ATOM     14  N           0     136.376 132.894 148.089  0.00  0.00    -0.191 N 
ATOM     15  N           0     137.519 131.165 146.840  0.00  0.00    -0.183 N 
ATOM     16  C           0     137.176 130.039 147.728  0.00  0.00     0.150 C 
ATOM     17  C           0     135.673 129.787 147.466  0.00  0.00     0.093 C 
ATOM     18  C           0     135.132 131.127 146.904  0.00  0.00     0.209 C 
ATOM     19  H           0     139.444 132.822 144.914  0.00  0.00     0.178 HD
ATOM     20  H           0     136.856 135.158 145.901  0.00  0.00     0.178 HD
ATOM     21  H           0     136.403 132.570 149.003  0.00  0.00     0.180 HD
ENDROOT
BRANCH   6  22
ATOM     22  C           0     136.814 131.688 143.712  0.00  0.00     0.208 C 
BRANCH  22  23
ATOM     23  O           0     136.471 132.265 142.425  0.00  0.00    -0.302 OA
BRANCH  23  24
ATOM     24  C           0     135.193 132.594 142.153  0.00  0.00     0.360 C 
ATOM     25  N           0     134.922 133.549 141.242  0.00  0.00    -0.341 N 
ATOM     26  C           0     133.532 133.907 140.948  0.00  0.00     0.151 C 
ATOM     27  H           0     135.647 134.000 140.782  0.00  0.00     0.164 HD
ATOM     28  O           0     134.285 132.029 142.730  0.00  0.00    -0.239 OA
ENDBRANCH  23  24
ENDBRANCH  22  23
ENDBRANCH   6  22
BRANCH  18  29
ATOM     29  O           0     134.119 131.655 147.764  0.00  0.00    -0.362 OA
ATOM     30  H           0     133.948 132.560 147.472  0.00  0.00     0.213 HD
ENDBRANCH  18  29
BRANCH  18  31
ATOM     31  O           0     134.620 130.944 145.583  0.00  0.00    -0.362 OA
ATOM     32  H           0     135.186 130.290 145.151  0.00  0.00     0.213 HD
ENDBRANCH  18  31
TORSDOF 5
ENDMDL
MODEL 3
REMARK VINA RESULT:      -7.1      2.531      5.691
REMARK  5 active torsions:
REMARK  status: ('A' for Active; 'I' for Inactive)
REMARK    1  A    between atoms: C_6  and  C_7 
REMARK    2  A    between atoms: C_7  and  O_8 
REMARK    3  A    between atoms: O_8  and  C_9 
REMARK       I    between atoms: C_9  and  N_10 
REMARK    4  A    between atoms: C_24  and  O_25 
REMARK    5  A    between atoms: C_24  and  O_26 
ROOT
ATOM      1  N           0     136.033 134.636 146.668  0.00  0.00    -0.235 N 
ATOM      2  H           0     136.472 135.469 146.906  0.00  0.00     0.174 HD
ATOM      3  H           0     135.598 134.105 147.352  0.00  0.00     0.174 HD
ATOM      4  C           0     136.025 134.236 145.428  0.00  0.00     0.672 C 
ATOM      5  N           0     136.627 134.962 144.414  0.00  0.00    -0.218 N 
ATOM      6  C           0     137.131 134.239 143.251  0.00  0.00     0.151 C 
ATOM      7  C           0     136.095 133.309 142.647  0.00  0.00     0.180 C 
ATOM      8  N           0     135.125 134.104 141.865  0.00  0.00    -0.216 N 
ATOM      9  C           0     133.879 133.569 142.085  0.00  0.00     0.670 C 
ATOM     10  N           0     132.851 133.764 141.308  0.00  0.00    -0.235 N 
ATOM     11  H           0     132.939 134.316 140.516  0.00  0.00     0.174 HD
ATOM     12  H           0     131.997 133.357 141.521  0.00  0.00     0.174 HD
ATOM     13  C           0     135.235 132.588 143.673  0.00  0.00     0.217 C 
ATOM     14  N           0     133.850 132.805 143.225  0.00  0.00    -0.191 N 
ATOM     15  N           0     135.424 133.066 145.043  0.00  0.00    -0.183 N 
ATOM     16  C           0     134.888 131.997 145.905  0.00  0.00     0.150 C 
ATOM     17  C           0     135.311 130.687 145.202  0.00  0.00     0.093 C 
ATOM     18  C           0     135.539 131.081 143.720  0.00  0.00     0.209 C 
ATOM     19  H           0     136.711 135.927 144.477  0.00  0.00     0.178 HD
ATOM     20  H           0     135.330 134.865 141.299  0.00  0.00     0.178 HD
ATOM     21  H           0     133.052 132.465 143.660  0.00  0.00     0.180 HD
ENDROOT
BRANCH   6  22
ATOM     22  C           0     138.348 133.414 143.670  0.00  0.00     0.208 C 
BRANCH  22  23
ATOM     23  O           0     138.317 133.203 145.106  0.00  0.00    -0.302 OA
BRANCH  23  24
ATOM     24  C           0     139.059 132.224 145.659  0.00  0.00     0.360 C 
ATOM     25  N           0     140.272 132.506 146.174  0.00  0.00    -0.341 N 
ATOM     26  C           0     141.079 131.441 146.775  0.00  0.00     0.151 C 
ATOM     27  H           0     140.611 133.415 146.146  0.00  0.00     0.164 HD
ATOM     28  O           0     138.635 131.086 145.694  0.00  0.00    -0.239 OA
ENDBRANCH  23  24
ENDBRANCH  22  23
ENDBRANCH   6  22
BRANCH  18  29
ATOM     29  O           0     134.644 130.360 142.870  0.00  0.00    -0.362 OA
ATOM     30  H           0     133.962 130.985 142.587  0.00  0.00     0.213 HD
ENDBRANCH  18  29
BRANCH  18  31
ATOM     31  O           0     136.894 130.835 143.342  0.00  0.00    -0.362 OA
ATOM     32  H           0     137.421 130.861 144.152  0.00  0.00     0.213 HD
ENDBRANCH  18  31
TORSDOF 5
ENDMDL
MODEL 4
REMARK VINA RESULT:      -6.9      2.540      4.124
REMARK  5 active torsions:
REMARK  status: ('A' for Active; 'I' for Inactive)
REMARK    1  A    between atoms: C_6  and  C_7 
REMARK    2  A    between atoms: C_7  and  O_8 
REMARK    3  A    between atoms: O_8  and  C_9 
REMARK       I    between atoms: C_9  and  N_10 
REMARK    4  A    between atoms: C_24  and  O_25 
REMARK    5  A    between atoms: C_24  and  O_26 
ROOT
ATOM      1  N           0     134.504 130.592 144.482  0.00  0.00    -0.235 N 
ATOM      2  H           0     134.149 130.408 143.597  0.00  0.00     0.174 HD
ATOM      3  H           0     134.177 130.095 145.248  0.00  0.00     0.174 HD
ATOM      4  C           0     135.421 131.503 144.639  0.00  0.00     0.672 C 
ATOM      5  N           0     135.923 132.236 143.577  0.00  0.00    -0.218 N 
ATOM      6  C           0     136.425 133.581 143.840  0.00  0.00     0.151 C 
ATOM      7  C           0     137.421 133.620 144.983  0.00  0.00     0.180 C 
ATOM      8  N           0     138.726 133.112 144.510  0.00  0.00    -0.216 N 
ATOM      9  C           0     139.261 132.346 145.516  0.00  0.00     0.670 C 
ATOM     10  N           0     140.524 132.039 145.610  0.00  0.00    -0.235 N 
ATOM     11  H           0     141.151 132.357 144.942  0.00  0.00     0.174 HD
ATOM     12  H           0     140.838 131.492 146.347  0.00  0.00     0.174 HD
ATOM     13  C           0     137.070 132.703 146.144  0.00  0.00     0.217 C 
ATOM     14  N           0     138.302 131.942 146.411  0.00  0.00    -0.191 N 
ATOM     15  N           0     135.949 131.804 145.868  0.00  0.00    -0.183 N 
ATOM     16  C           0     135.481 131.347 147.190  0.00  0.00     0.150 C 
ATOM     17  C           0     135.605 132.596 148.093  0.00  0.00     0.093 C 
ATOM     18  C           0     136.660 133.493 147.398  0.00  0.00     0.209 C 
ATOM     19  H           0     135.941 131.863 142.681  0.00  0.00     0.178 HD
ATOM     20  H           0     139.130 133.287 143.646  0.00  0.00     0.178 HD
ATOM     21  H           0     138.416 131.272 147.103  0.00  0.00     0.180 HD
ENDROOT
BRANCH   6  22
ATOM     22  C           0     135.245 134.491 144.183  0.00  0.00     0.208 C 
BRANCH  22  23
ATOM     23  O           0     134.794 135.172 142.983  0.00  0.00    -0.302 OA
BRANCH  23  24
ATOM     24  C           0     133.978 134.542 142.117  0.00  0.00     0.360 C 
ATOM     25  N           0     133.865 134.988 140.850  0.00  0.00    -0.341 N 
ATOM     26  C           0     132.977 134.303 139.909  0.00  0.00     0.151 C 
ATOM     27  H           0     134.372 135.764 140.563  0.00  0.00     0.164 HD
ATOM     28  O           0     133.343 133.571 142.477  0.00  0.00    -0.239 OA
ENDBRANCH  23  24
ENDBRANCH  22  23
ENDBRANCH   6  22
BRANCH  18  29
ATOM     29  O           0     137.786 133.693 148.256  0.00  0.00    -0.362 OA
ATOM     30  H           0     137.922 134.648 148.322  0.00  0.00     0.213 HD
ENDBRANCH  18  29
BRANCH  18  31
ATOM     31  O           0     136.084 134.747 147.030  0.00  0.00    -0.362 OA
ATOM     32  H           0     135.826 135.189 147.850  0.00  0.00     0.213 HD
ENDBRANCH  18  31
TORSDOF 5
ENDMDL
MODEL 5
REMARK VINA RESULT:      -6.8      3.165      6.265
REMARK  5 active torsions:
REMARK  status: ('A' for Active; 'I' for Inactive)
REMARK    1  A    between atoms: C_6  and  C_7 
REMARK    2  A    between atoms: C_7  and  O_8 
REMARK    3  A    between atoms: O_8  and  C_9 
REMARK       I    between atoms: C_9  and  N_10 
REMARK    4  A    between atoms: C_24  and  O_25 
REMARK    5  A    between atoms: C_24  and  O_26 
ROOT
ATOM      1  N           0     138.821 130.760 145.481  0.00  0.00    -0.235 N 
ATOM      2  H           0     138.951 130.066 146.147  0.00  0.00     0.174 HD
ATOM      3  H           0     139.568 131.059 144.941  0.00  0.00     0.174 HD
ATOM      4  C           0     137.641 131.285 145.309  0.00  0.00     0.672 C 
ATOM      5  N           0     136.542 130.889 146.051  0.00  0.00    -0.218 N 
ATOM      6  C           0     135.476 131.859 146.281  0.00  0.00     0.151 C 
ATOM      7  C           0     134.998 132.517 145.001  0.00  0.00     0.180 C 
ATOM      8  N           0     134.127 131.576 144.266  0.00  0.00    -0.216 N 
ATOM      9  C           0     134.418 131.700 142.929  0.00  0.00     0.670 C 
ATOM     10  N           0     133.628 131.312 141.969  0.00  0.00    -0.235 N 
ATOM     11  H           0     132.772 130.907 142.178  0.00  0.00     0.174 HD
ATOM     12  H           0     133.894 131.429 141.043  0.00  0.00     0.174 HD
ATOM     13  C           0     136.110 132.834 144.013  0.00  0.00     0.217 C 
ATOM     14  N           0     135.645 132.282 142.730  0.00  0.00    -0.191 N 
ATOM     15  N           0     137.408 132.271 144.385  0.00  0.00    -0.183 N 
ATOM     16  C           0     138.401 133.030 143.602  0.00  0.00     0.150 C 
ATOM     17  C           0     137.865 134.481 143.607  0.00  0.00     0.093 C 
ATOM     18  C           0     136.345 134.347 143.878  0.00  0.00     0.209 C 
ATOM     19  H           0     136.482 129.988 146.408  0.00  0.00     0.178 HD
ATOM     20  H           0     133.469 130.979 144.656  0.00  0.00     0.178 HD
ATOM     21  H           0     136.123 132.325 141.887  0.00  0.00     0.180 HD
ENDROOT
BRANCH   6  22
ATOM     22  C           0     135.990 132.943 147.230  0.00  0.00     0.208 C 
BRANCH  22  23
ATOM     23  O           0     135.215 132.918 148.457  0.00  0.00    -0.302 OA
BRANCH  23  24
ATOM     24  C           0     134.723 131.753 148.921  0.00  0.00     0.360 C 
ATOM     25  N           0     133.392 131.580 149.032  0.00  0.00    -0.341 N 
ATOM     26  C           0     132.858 130.313 149.537  0.00  0.00     0.151 C 
ATOM     27  H           0     132.787 132.295 148.779  0.00  0.00     0.164 HD
ATOM     28  O           0     135.481 130.858 149.239  0.00  0.00    -0.239 OA
ENDBRANCH  23  24
ENDBRANCH  22  23
ENDBRANCH   6  22
BRANCH  18  29
ATOM     29  O           0     135.595 134.877 142.781  0.00  0.00    -0.362 OA
ATOM     30  H           0     136.002 135.721 142.546  0.00  0.00     0.213 HD
ENDBRANCH  18  29
BRANCH  18  31
ATOM     31  O           0     135.994 135.016 145.090  0.00  0.00    -0.362 OA
ATOM     32  H           0     135.895 134.333 145.768  0.00  0.00     0.213 HD
ENDBRANCH  18  31
TORSDOF 5
ENDMDL
MODEL 6
REMARK VINA RESULT:      -6.8      7.953     10.508
REMARK  5 active torsions:
REMARK  status: ('A' for Active; 'I' for Inactive)
REMARK    1  A    between atoms: C_6  and  C_7 
REMARK    2  A    between atoms: C_7  and  O_8 
REMARK    3  A    between atoms: O_8  and  C_9 
REMARK       I    between atoms: C_9  and  N_10 
REMARK    4  A    between atoms: C_24  and  O_25 
REMARK    5  A    between atoms: C_24  and  O_26 
ROOT
ATOM      1  N           0     128.830 134.146 132.025  0.00  0.00    -0.235 N 
ATOM      2  H           0     128.094 133.743 131.537  0.00  0.00     0.174 HD
ATOM      3  H           0     129.013 135.093 131.931  0.00  0.00     0.174 HD
ATOM      4  C           0     129.569 133.414 132.810  0.00  0.00     0.672 C 
ATOM      5  N           0     129.346 132.059 132.982  0.00  0.00    -0.218 N 
ATOM      6  C           0     130.482 131.208 133.320  0.00  0.00     0.151 C 
ATOM      7  C           0     131.274 131.733 134.502  0.00  0.00     0.180 C 
ATOM      8  N           0     130.543 131.433 135.751  0.00  0.00    -0.216 N 
ATOM      9  C           0     130.674 132.521 136.578  0.00  0.00     0.670 C 
ATOM     10  N           0     130.481 132.487 137.867  0.00  0.00    -0.235 N 
ATOM     11  H           0     130.230 131.656 138.299  0.00  0.00     0.174 HD
ATOM     12  H           0     130.590 133.293 138.396  0.00  0.00     0.174 HD
ATOM     13  C           0     131.429 133.246 134.523  0.00  0.00     0.217 C 
ATOM     14  N           0     131.032 133.648 135.882  0.00  0.00    -0.191 N 
ATOM     15  N           0     130.622 133.936 133.515  0.00  0.00    -0.183 N 
ATOM     16  C           0     131.223 135.276 133.387  0.00  0.00     0.150 C 
ATOM     17  C           0     132.746 135.026 133.496  0.00  0.00     0.093 C 
ATOM     18  C           0     132.879 133.679 134.252  0.00  0.00     0.209 C 
ATOM     19  H           0     128.455 131.686 132.881  0.00  0.00     0.178 HD
ATOM     20  H           0     130.058 130.616 135.949  0.00  0.00     0.178 HD
ATOM     21  H           0     131.026 134.554 136.227  0.00  0.00     0.180 HD
ENDROOT
BRANCH   6  22
ATOM     22  C           0     131.409 131.116 132.107  0.00  0.00     0.208 C 
BRANCH  22  23
ATOM     23  O           0     132.323 130.001 132.281  0.00  0.00    -0.302 OA
BRANCH  23  24
ATOM     24  C           0     131.870 128.737 132.182  0.00  0.00     0.360 C 
ATOM     25  N           0     131.864 127.936 133.267  0.00  0.00    -0.341 N 
ATOM     26  C           0     131.372 126.561 133.159  0.00  0.00     0.151 C 
ATOM     27  H           0     132.186 128.271 134.118  0.00  0.00     0.164 HD
ATOM     28  O           0     131.467 128.317 131.116  0.00  0.00    -0.239 OA
ENDBRANCH  23  24
ENDBRANCH  22  23
ENDBRANCH   6  22
BRANCH  18  29
ATOM     29  O           0     133.586 133.866 135.480  0.00  0.00    -0.362 OA
ATOM     30  H           0     134.529 133.817 135.271  0.00  0.00     0.213 HD
ENDBRANCH  18  29
BRANCH  18  31
ATOM     31  O           0     133.543 132.713 133.436  0.00  0.00    -0.362 OA
ATOM     32  H           0     132.860 132.269 132.915  0.00  0.00     0.213 HD
ENDBRANCH  18  31
TORSDOF 5
ENDMDL
MODEL 7
REMARK VINA RESULT:      -6.7      7.429     10.117
REMARK  5 active torsions:
REMARK  status: ('A' for Active; 'I' for Inactive)
REMARK    1  A    between atoms: C_6  and  C_7 
REMARK    2  A    between atoms: C_7  and  O_8 
REMARK    3  A    between atoms: O_8  and  C_9 
REMARK       I    between atoms: C_9  and  N_10 
REMARK    4  A    between atoms: C_24  and  O_25 
REMARK    5  A    between atoms: C_24  and  O_26 
ROOT
ATOM      1  N           0     132.701 138.076 132.047  0.00  0.00    -0.235 N 
ATOM      2  H           0     132.062 138.754 131.773  0.00  0.00     0.174 HD
ATOM      3  H           0     133.623 138.133 131.753  0.00  0.00     0.174 HD
ATOM      4  C           0     132.320 137.095 132.813  0.00  0.00     0.672 C 
ATOM      5  N           0     131.016 136.973 133.263  0.00  0.00    -0.218 N 
ATOM      6  C           0     130.506 135.636 133.550  0.00  0.00     0.151 C 
ATOM      7  C           0     131.421 134.845 134.465  0.00  0.00     0.180 C 
ATOM      8  N           0     131.253 135.322 135.854  0.00  0.00    -0.216 N 
ATOM      9  C           0     132.497 135.344 136.436  0.00  0.00     0.670 C 
ATOM     10  N           0     132.702 135.359 137.724  0.00  0.00    -0.235 N 
ATOM     11  H           0     131.949 135.354 138.335  0.00  0.00     0.174 HD
ATOM     12  H           0     133.607 135.375 138.071  0.00  0.00     0.174 HD
ATOM     13  C           0     132.902 135.045 134.185  0.00  0.00     0.217 C 
ATOM     14  N           0     133.497 135.350 135.497  0.00  0.00    -0.191 N 
ATOM     15  N           0     133.183 136.111 133.223  0.00  0.00    -0.183 N 
ATOM     16  C           0     134.557 135.860 132.753  0.00  0.00     0.150 C 
ATOM     17  C           0     134.651 134.320 132.644  0.00  0.00     0.093 C 
ATOM     18  C           0     133.553 133.782 133.597  0.00  0.00     0.209 C 
ATOM     19  H           0     130.458 137.757 133.385  0.00  0.00     0.178 HD
ATOM     20  H           0     130.417 135.574 136.276  0.00  0.00     0.178 HD
ATOM     21  H           0     134.436 135.523 135.668  0.00  0.00     0.180 HD
ENDROOT
BRANCH   6  22
ATOM     22  C           0     130.346 134.874 132.234  0.00  0.00     0.208 C 
BRANCH  22  23
ATOM     23  O           0     129.018 134.290 132.172  0.00  0.00    -0.302 OA
BRANCH  23  24
ATOM     24  C           0     128.874 132.958 132.030  0.00  0.00     0.360 C 
ATOM     25  N           0     129.592 132.116 132.799  0.00  0.00    -0.341 N 
ATOM     26  C           0     129.436 130.669 132.644  0.00  0.00     0.151 C 
ATOM     27  H           0     130.213 132.470 133.456  0.00  0.00     0.164 HD
ATOM     28  O           0     128.097 132.516 131.207  0.00  0.00    -0.239 OA
ENDBRANCH  23  24
ENDBRANCH  22  23
ENDBRANCH   6  22
BRANCH  18  29
ATOM     29  O           0     134.137 132.989 134.632  0.00  0.00    -0.362 OA
ATOM     30  H           0     134.076 132.067 134.347  0.00  0.00     0.213 HD
ENDBRANCH  18  29
BRANCH  18  31
ATOM     31  O           0     132.589 133.020 132.868  0.00  0.00    -0.362 OA
ATOM     32  H           0     132.826 133.090 131.933  0.00  0.00     0.213 HD
ENDBRANCH  18  31
TORSDOF 5
ENDMDL
MODEL 8
REMARK VINA RESULT:      -6.6      3.264      5.048
REMARK  5 active torsions:
REMARK  status: ('A' for Active; 'I' for Inactive)
REMARK    1  A    between atoms: C_6  and  C_7 
REMARK    2  A    between atoms: C_7  and  O_8 
REMARK    3  A    between atoms: O_8  and  C_9 
REMARK       I    between atoms: C_9  and  N_10 
REMARK    4  A    between atoms: C_24  and  O_25 
REMARK    5  A    between atoms: C_24  and  O_26 
ROOT
ATOM      1  N           0     136.040 133.621 149.055  0.00  0.00    -0.235 N 
ATOM      2  H           0     135.153 133.874 149.358  0.00  0.00     0.174 HD
ATOM      3  H           0     136.795 134.204 149.229  0.00  0.00     0.174 HD
ATOM      4  C           0     136.216 132.498 148.420  0.00  0.00     0.672 C 
ATOM      5  N           0     135.171 131.630 148.152  0.00  0.00    -0.218 N 
ATOM      6  C           0     135.267 130.773 146.974  0.00  0.00     0.151 C 
ATOM      7  C           0     136.575 130.008 146.914  0.00  0.00     0.180 C 
ATOM      8  N           0     136.521 128.875 147.863  0.00  0.00    -0.216 N 
ATOM      9  C           0     137.754 128.776 148.459  0.00  0.00     0.670 C 
ATOM     10  N           0     138.190 127.706 149.063  0.00  0.00    -0.235 N 
ATOM     11  H           0     137.633 126.915 149.111  0.00  0.00     0.174 HD
ATOM     12  H           0     139.073 127.702 149.465  0.00  0.00     0.174 HD
ATOM     13  C           0     137.785 130.809 147.369  0.00  0.00     0.217 C 
ATOM     14  N           0     138.471 129.940 148.340  0.00  0.00    -0.191 N 
ATOM     15  N           0     137.447 132.100 147.968  0.00  0.00    -0.183 N 
ATOM     16  C           0     138.693 132.888 147.922  0.00  0.00     0.150 C 
ATOM     17  C           0     139.333 132.516 146.565  0.00  0.00     0.093 C 
ATOM     18  C           0     138.731 131.135 146.200  0.00  0.00     0.209 C 
ATOM     19  H           0     134.395 131.592 148.734  0.00  0.00     0.178 HD
ATOM     20  H           0     135.754 128.307 148.033  0.00  0.00     0.178 HD
ATOM     21  H           0     139.290 130.154 148.813  0.00  0.00     0.180 HD
ENDROOT
BRANCH   6  22
ATOM     22  C           0     135.146 131.641 145.721  0.00  0.00     0.208 C 
BRANCH  22  23
ATOM     23  O           0     135.038 130.788 144.551  0.00  0.00    -0.302 OA
BRANCH  23  24
ATOM     24  C           0     134.881 131.335 143.330  0.00  0.00     0.360 C 
ATOM     25  N           0     135.735 132.287 142.903  0.00  0.00    -0.341 N 
ATOM     26  C           0     135.563 132.882 141.576  0.00  0.00     0.151 C 
ATOM     27  H           0     136.462 132.578 143.475  0.00  0.00     0.164 HD
ATOM     28  O           0     133.970 130.971 142.614  0.00  0.00    -0.239 OA
ENDBRANCH  23  24
ENDBRANCH  22  23
ENDBRANCH   6  22
BRANCH  18  29
ATOM     29  O           0     139.764 130.152 146.100  0.00  0.00    -0.362 OA
ATOM     30  H           0     140.418 130.362 146.780  0.00  0.00     0.213 HD
ENDBRANCH  18  29
BRANCH  18  31
ATOM     31  O           0     137.999 131.217 144.976  0.00  0.00    -0.362 OA
ATOM     32  H           0     138.542 130.795 144.297  0.00  0.00     0.213 HD
ENDBRANCH  18  31
TORSDOF 5
ENDMDL
MODEL 9
REMARK VINA RESULT:      -6.5      4.405      6.899
REMARK  5 active torsions:
REMARK  status: ('A' for Active; 'I' for Inactive)
REMARK    1  A    between atoms: C_6  and  C_7 
REMARK    2  A    between atoms: C_7  and  O_8 
REMARK    3  A    between atoms: O_8  and  C_9 
REMARK       I    between atoms: C_9  and  N_10 
REMARK    4  A    between atoms: C_24  and  O_25 
REMARK    5  A    between atoms: C_24  and  O_26 
ROOT
ATOM      1  N           0     139.075 130.468 146.166  0.00  0.00    -0.235 N 
ATOM      2  H           0     139.163 129.604 145.731  0.00  0.00     0.174 HD
ATOM      3  H           0     139.837 130.862 146.619  0.00  0.00     0.174 HD
ATOM      4  C           0     137.936 131.098 146.137  0.00  0.00     0.672 C 
ATOM      5  N           0     136.822 130.580 145.500  0.00  0.00    -0.218 N 
ATOM      6  C           0     135.502 130.957 145.996  0.00  0.00     0.151 C 
ATOM      7  C           0     135.338 132.459 146.137  0.00  0.00     0.180 C 
ATOM      8  N           0     135.122 133.052 144.800  0.00  0.00    -0.216 N 
ATOM      9  C           0     135.820 134.234 144.755  0.00  0.00     0.670 C 
ATOM     10  N           0     135.586 135.190 143.900  0.00  0.00    -0.235 N 
ATOM     11  H           0     134.880 135.090 143.242  0.00  0.00     0.174 HD
ATOM     12  H           0     136.117 136.001 143.921  0.00  0.00     0.174 HD
ATOM     13  C           0     136.576 133.172 146.658  0.00  0.00     0.217 C 
ATOM     14  N           0     136.795 134.285 145.719  0.00  0.00    -0.191 N 
ATOM     15  N           0     137.760 132.316 146.741  0.00  0.00    -0.183 N 
ATOM     16  C           0     138.683 133.016 147.653  0.00  0.00     0.150 C 
ATOM     17  C           0     137.765 133.616 148.743  0.00  0.00     0.093 C 
ATOM     18  C           0     136.368 133.721 148.080  0.00  0.00     0.209 C 
ATOM     19  H           0     136.917 129.981 144.742  0.00  0.00     0.178 HD
ATOM     20  H           0     134.585 132.675 144.086  0.00  0.00     0.178 HD
ATOM     21  H           0     137.506 134.943 145.774  0.00  0.00     0.180 HD
ENDROOT
BRANCH   6  22
ATOM     22  C           0     135.284 130.308 147.363  0.00  0.00     0.208 C 
BRANCH  22  23
ATOM     23  O           0     135.007 128.893 147.188  0.00  0.00    -0.302 OA
BRANCH  23  24
ATOM     24  C           0     133.859 128.368 147.657  0.00  0.00     0.360 C 
ATOM     25  N           0     133.114 129.058 148.543  0.00  0.00    -0.341 N 
ATOM     26  C           0     131.866 128.486 149.052  0.00  0.00     0.151 C 
ATOM     27  H           0     133.405 129.933 148.843  0.00  0.00     0.164 HD
ATOM     28  O           0     133.495 127.272 147.280  0.00  0.00    -0.239 OA
ENDBRANCH  23  24
ENDBRANCH  22  23
ENDBRANCH   6  22
BRANCH  18  29
ATOM     29  O           0     135.939 135.083 148.035  0.00  0.00    -0.362 OA
ATOM     30  H           0     135.786 135.299 147.105  0.00  0.00     0.213 HD
ENDBRANCH  18  29
BRANCH  18  31
ATOM     31  O           0     135.419 132.921 148.787  0.00  0.00    -0.362 OA
ATOM     32  H           0     134.654 132.815 148.206  0.00  0.00     0.213 HD
ENDBRANCH  18  31
TORSDOF 5
ENDMDL
