# created with PyMOL 2.3.4
@<TRIPOS>MOLECULE
ligand_out_0001
32 34 1                 
SMALL
USER_CHARGES
@<TRIPOS>ATOM
1	   N	135.263	136.751	143.269	N.3	1	UNK0	-0.235	
2	   N	133.888	134.843	143.180	N.3	1	UNK0	-0.218	
3	   N	134.079	132.232	144.804	N.3	1	UNK0	-0.216	
4	   N	134.872	131.668	146.960	N.3	1	UNK0	-0.235	
5	   N	136.147	132.939	145.427	N.3	1	UNK0	-0.191	
6	   N	136.152	134.629	143.697	N.3	1	UNK0	-0.183	
7	   N	133.746	135.315	138.350	N.pl3	1	UNK0	-0.341	
8	   C	135.110	135.462	143.380	C.3	1	UNK0	0.672	
9	   C	133.881	133.463	142.705	C.3	1	UNK0	0.151	
10	   C	134.766	132.554	143.536	C.3	1	UNK0	0.180	
11	   C	135.024	132.245	145.801	C.3	1	UNK0	0.670	
12	   C	136.072	133.196	143.979	C.3	1	UNK0	0.217	
13	   C	137.587	134.960	143.767	C.3	1	UNK0	0.150	
14	   C	138.294	133.742	143.130	C.3	1	UNK0	0.093	
15	   C	137.288	132.572	143.274	C.3	1	UNK0	0.209	
16	   C	134.370	133.437	141.256	C.2	1	UNK0	0.208	
17	   C	133.319	134.565	139.385	C.2	1	UNK0	0.360	
18	   C	133.071	135.227	137.054	C.3	1	UNK0	0.151	
19	   O	133.939	134.646	140.578	O.2	1	UNK0	-0.302	
20	   O	132.373	133.815	139.242	O.co2	1	UNK0	-0.239	
21	   O	137.850	131.526	144.070	O.2	1	UNK0	-0.362	
22	   O	136.915	132.074	141.988	O.2	1	UNK0	-0.362	
23	   H	134.503	137.311	143.040	 H	1	UNK0	0.174	
24	   H	136.132	137.152	143.420	 H	1	UNK0	0.174	
25	   H	134.052	131.192	147.162	 H	1	UNK0	0.174	
26	   H	135.580	131.715	147.622	 H	1	UNK0	0.174	
27	   H	133.058	135.316	143.352	 H	1	UNK0	0.178	
28	   H	133.133	132.046	144.913	 H	1	UNK0	0.178	
29	   H	136.868	133.212	146.015	 H	1	UNK0	0.180	
30	   H	134.501	135.914	138.465	 H	1	UNK0	0.164	
31	   H	137.134	131.175	144.617	 H	1	UNK0	0.213	
32	   H	137.644	131.518	141.681	 H	1	UNK0	0.213	
@<TRIPOS>BOND
1 1 8 1
2 1 23 1
3 1 24 1
4 2 9 1
5 2 27 1
6 3 11 1
7 3 28 1
8 4 25 1
9 4 26 1
10 5 29 1
11 6 13 1
12 7 18 1
13 7 30 1
14 2 8 1
15 6 8 1
16 9 10 1
17 9 16 1
18 3 10 1
19 10 12 1
20 4 11 1
21 5 11 1
22 5 12 1
23 6 12 1
24 12 15 1
25 13 14 1
26 14 15 1
27 15 21 2
28 15 22 2
29 16 19 2
30 7 17 1
31 17 20 2
32 17 19 2
33 21 31 1
34 22 32 1
@<TRIPOS>SUBSTRUCTURE
1	UNK0	1	GROUP	1 ****	UNK
