# created with PyMOL 2.3.4
@<TRIPOS>MOLECULE
ligand_out_0001
32 34 1                 
SMALL
USER_CHARGES
@<TRIPOS>ATOM
1	   N	134.651	132.059	146.318	N.3	1	UNK0	-0.235	
2	   N	136.327	133.544	145.595	N.3	1	UNK0	-0.218	
3	   N	136.134	135.858	143.570	N.3	1	UNK0	-0.216	
4	   N	134.414	137.329	142.882	N.3	1	UNK0	-0.235	
5	   N	134.122	134.983	142.980	N.3	1	UNK0	-0.191	
6	   N	134.614	132.919	144.141	N.3	1	UNK0	-0.183	
7	   N	139.814	130.961	146.632	N.pl3	1	UNK0	-0.337	
8	   C	135.172	132.810	145.388	C.3	1	UNK0	0.672	
9	   C	137.178	133.832	144.445	C.3	1	UNK0	0.151	
10	   C	136.410	134.433	143.284	C.3	1	UNK0	0.180	
11	   C	134.862	136.129	143.129	C.3	1	UNK0	0.670	
12	   C	135.031	133.829	143.073	C.3	1	UNK0	0.217	
13	   C	133.518	132.119	143.566	C.3	1	UNK0	0.150	
14	   C	133.958	131.862	142.104	C.3	1	UNK0	0.093	
15	   C	134.958	133.001	141.779	C.3	1	UNK0	0.209	
16	   C	137.836	132.531	143.979	C.2	1	UNK0	0.208	
17	   C	138.775	131.298	145.842	C.2	1	UNK0	0.362	
18	   C	139.633	129.975	147.700	C.3	1	UNK0	0.154	
19	   C	141.125	131.581	146.423	C.3	1	UNK0	0.154	
20	   O	138.942	132.205	144.861	O.2	1	UNK0	-0.302	
21	   O	137.689	130.784	146.016	O.co2	1	UNK0	-0.238	
22	   O	134.472	133.798	140.697	O.2	1	UNK0	-0.362	
23	   O	136.242	132.459	141.463	O.2	1	UNK0	-0.362	
24	   H	135.074	132.002	147.189	 H	1	UNK0	0.174	
25	   H	133.837	131.562	146.140	 H	1	UNK0	0.174	
26	   H	134.991	138.097	143.008	 H	1	UNK0	0.174	
27	   H	133.502	137.451	142.572	 H	1	UNK0	0.174	
28	   H	136.564	133.859	146.482	 H	1	UNK0	0.178	
29	   H	136.740	136.485	143.992	 H	1	UNK0	0.178	
30	   H	133.163	134.941	142.835	 H	1	UNK0	0.180	
31	   H	133.507	133.747	140.725	 H	1	UNK0	0.213	
32	   H	136.182	131.503	141.592	 H	1	UNK0	0.213	
@<TRIPOS>BOND
1 1 8 1
2 1 24 1
3 1 25 1
4 2 9 1
5 2 28 1
6 3 11 1
7 3 29 1
8 4 26 1
9 4 27 1
10 5 30 1
11 6 13 1
12 7 18 1
13 7 19 1
14 2 8 1
15 6 8 1
16 9 10 1
17 9 16 1
18 3 10 1
19 10 12 1
20 4 11 1
21 5 11 1
22 5 12 1
23 6 12 1
24 12 15 1
25 13 14 1
26 14 15 1
27 15 22 2
28 15 23 2
29 16 20 2
30 7 17 1
31 17 21 2
32 17 20 2
33 22 31 1
34 23 32 1
@<TRIPOS>SUBSTRUCTURE
1	UNK0	1	GROUP	1 ****	UNK
