MODEL 1
REMARK VINA RESULT:      -7.8      0.000      0.000
REMARK  5 active torsions:
REMARK  status: ('A' for Active; 'I' for Inactive)
REMARK    1  A    between atoms: C_6  and  C_7 
REMARK    2  A    between atoms: C_7  and  O_8 
REMARK    3  A    between atoms: O_8  and  C_9 
REMARK       I    between atoms: C_9  and  N_10 
REMARK    4  A    between atoms: C_25  and  O_26 
REMARK    5  A    between atoms: C_25  and  O_27 
ROOT
ATOM      1  N           0     134.651 132.059 146.318  0.00  0.00    -0.235 N 
ATOM      2  H           0     135.074 132.002 147.189  0.00  0.00     0.174 HD
ATOM      3  H           0     133.837 131.562 146.140  0.00  0.00     0.174 HD
ATOM      4  C           0     135.172 132.810 145.388  0.00  0.00     0.672 C 
ATOM      5  N           0     136.327 133.544 145.595  0.00  0.00    -0.218 N 
ATOM      6  C           0     137.178 133.832 144.445  0.00  0.00     0.151 C 
ATOM      7  C           0     136.410 134.433 143.284  0.00  0.00     0.180 C 
ATOM      8  N           0     136.134 135.858 143.570  0.00  0.00    -0.216 N 
ATOM      9  C           0     134.862 136.129 143.129  0.00  0.00     0.670 C 
ATOM     10  N           0     134.414 137.329 142.882  0.00  0.00    -0.235 N 
ATOM     11  H           0     134.991 138.097 143.008  0.00  0.00     0.174 HD
ATOM     12  H           0     133.502 137.451 142.572  0.00  0.00     0.174 HD
ATOM     13  C           0     135.031 133.829 143.073  0.00  0.00     0.217 C 
ATOM     14  N           0     134.122 134.983 142.980  0.00  0.00    -0.191 N 
ATOM     15  N           0     134.614 132.919 144.141  0.00  0.00    -0.183 N 
ATOM     16  C           0     133.518 132.119 143.566  0.00  0.00     0.150 C 
ATOM     17  C           0     133.958 131.862 142.104  0.00  0.00     0.093 C 
ATOM     18  C           0     134.958 133.001 141.779  0.00  0.00     0.209 C 
ATOM     19  H           0     136.564 133.859 146.482  0.00  0.00     0.178 HD
ATOM     20  H           0     136.740 136.485 143.992  0.00  0.00     0.178 HD
ATOM     21  H           0     133.163 134.941 142.835  0.00  0.00     0.180 HD
ENDROOT
BRANCH   6  22
ATOM     22  C           0     137.836 132.531 143.979  0.00  0.00     0.208 C 
BRANCH  22  23
ATOM     23  O           0     138.942 132.205 144.861  0.00  0.00    -0.302 OA
BRANCH  23  24
ATOM     24  C           0     138.775 131.298 145.842  0.00  0.00     0.362 C 
ATOM     25  N           0     139.814 130.961 146.632  0.00  0.00    -0.337 N 
ATOM     26  C           0     139.633 129.975 147.700  0.00  0.00     0.154 C 
ATOM     27  C           0     141.125 131.581 146.423  0.00  0.00     0.154 C 
ATOM     28  O           0     137.689 130.784 146.016  0.00  0.00    -0.238 OA
ENDBRANCH  23  24
ENDBRANCH  22  23
ENDBRANCH   6  22
BRANCH  18  29
ATOM     29  O           0     134.472 133.798 140.697  0.00  0.00    -0.362 OA
ATOM     30  H           0     133.507 133.747 140.725  0.00  0.00     0.213 HD
ENDBRANCH  18  29
BRANCH  18  31
ATOM     31  O           0     136.242 132.459 141.463  0.00  0.00    -0.362 OA
ATOM     32  H           0     136.182 131.503 141.592  0.00  0.00     0.213 HD
ENDBRANCH  18  31
TORSDOF 5
ENDMDL
MODEL 2
REMARK VINA RESULT:      -6.8      4.138      6.956
REMARK  5 active torsions:
REMARK  status: ('A' for Active; 'I' for Inactive)
REMARK    1  A    between atoms: C_6  and  C_7 
REMARK    2  A    between atoms: C_7  and  O_8 
REMARK    3  A    between atoms: O_8  and  C_9 
REMARK       I    between atoms: C_9  and  N_10 
REMARK    4  A    between atoms: C_25  and  O_26 
REMARK    5  A    between atoms: C_25  and  O_27 
ROOT
ATOM      1  N           0     136.825 128.562 147.252  0.00  0.00    -0.235 N 
ATOM      2  H           0     137.683 128.919 146.973  0.00  0.00     0.174 HD
ATOM      3  H           0     136.730 127.614 147.437  0.00  0.00     0.174 HD
ATOM      4  C           0     135.801 129.357 147.386  0.00  0.00     0.672 C 
ATOM      5  N           0     135.887 130.717 147.141  0.00  0.00    -0.218 N 
ATOM      6  C           0     134.685 131.417 146.699  0.00  0.00     0.151 C 
ATOM      7  C           0     133.489 131.149 147.592  0.00  0.00     0.180 C 
ATOM      8  N           0     133.622 131.941 148.833  0.00  0.00    -0.216 N 
ATOM      9  C           0     133.195 131.154 149.875  0.00  0.00     0.670 C 
ATOM     10  N           0     132.829 131.616 151.038  0.00  0.00    -0.235 N 
ATOM     11  H           0     132.850 132.570 151.210  0.00  0.00     0.174 HD
ATOM     12  H           0     132.536 131.004 151.732  0.00  0.00     0.174 HD
ATOM     13  C           0     133.392 129.713 148.084  0.00  0.00     0.217 C 
ATOM     14  N           0     133.199 129.823 149.539  0.00  0.00    -0.191 N 
ATOM     15  N           0     134.568 128.900 147.772  0.00  0.00    -0.183 N 
ATOM     16  C           0     134.121 127.502 147.905  0.00  0.00     0.150 C 
ATOM     17  C           0     132.684 127.502 147.331  0.00  0.00     0.093 C 
ATOM     18  C           0     132.202 128.969 147.454  0.00  0.00     0.209 C 
ATOM     19  H           0     136.725 131.192 147.261  0.00  0.00     0.178 HD
ATOM     20  H           0     133.951 132.851 148.900  0.00  0.00     0.178 HD
ATOM     21  H           0     133.090 129.082 150.156  0.00  0.00     0.180 HD
ENDROOT
BRANCH   6  22
ATOM     22  C           0     134.347 130.968 145.276  0.00  0.00     0.208 C 
BRANCH  22  23
ATOM     23  O           0     133.964 132.123 144.483  0.00  0.00    -0.302 OA
BRANCH  23  24
ATOM     24  C           0     133.086 131.982 143.472  0.00  0.00     0.362 C 
ATOM     25  N           0     133.064 132.883 142.469  0.00  0.00    -0.337 N 
ATOM     26  C           0     132.109 132.732 141.368  0.00  0.00     0.154 C 
ATOM     27  C           0     133.994 134.015 142.480  0.00  0.00     0.154 C 
ATOM     28  O           0     132.314 131.045 143.462  0.00  0.00    -0.238 OA
ENDBRANCH  23  24
ENDBRANCH  22  23
ENDBRANCH   6  22
BRANCH  18  29
ATOM     29  O           0     131.053 129.048 148.301  0.00  0.00    -0.362 OA
ATOM     30  H           0     131.221 128.462 149.052  0.00  0.00     0.213 HD
ENDBRANCH  18  29
BRANCH  18  31
ATOM     31  O           0     131.908 129.506 146.162  0.00  0.00    -0.362 OA
ATOM     32  H           0     131.687 130.438 146.291  0.00  0.00     0.213 HD
ENDBRANCH  18  31
TORSDOF 5
ENDMDL
MODEL 3
REMARK VINA RESULT:      -6.7      2.609      5.844
REMARK  5 active torsions:
REMARK  status: ('A' for Active; 'I' for Inactive)
REMARK    1  A    between atoms: C_6  and  C_7 
REMARK    2  A    between atoms: C_7  and  O_8 
REMARK    3  A    between atoms: O_8  and  C_9 
REMARK       I    between atoms: C_9  and  N_10 
REMARK    4  A    between atoms: C_25  and  O_26 
REMARK    5  A    between atoms: C_25  and  O_27 
ROOT
ATOM      1  N           0     138.980 130.492 145.896  0.00  0.00    -0.235 N 
ATOM      2  H           0     139.617 130.546 145.166  0.00  0.00     0.174 HD
ATOM      3  H           0     139.098 129.829 146.595  0.00  0.00     0.174 HD
ATOM      4  C           0     137.968 131.313 145.942  0.00  0.00     0.672 C 
ATOM      5  N           0     137.759 132.279 144.973  0.00  0.00    -0.218 N 
ATOM      6  C           0     136.390 132.712 144.712  0.00  0.00     0.151 C 
ATOM      7  C           0     135.651 133.108 145.975  0.00  0.00     0.180 C 
ATOM      8  N           0     136.105 134.449 146.404  0.00  0.00    -0.216 N 
ATOM      9  C           0     136.204 134.435 147.773  0.00  0.00     0.670 C 
ATOM     10  N           0     136.220 135.506 148.517  0.00  0.00    -0.235 N 
ATOM     11  H           0     136.161 136.382 148.106  0.00  0.00     0.174 HD
ATOM     12  H           0     136.291 135.425 149.481  0.00  0.00     0.174 HD
ATOM     13  C           0     135.950 132.221 147.174  0.00  0.00     0.217 C 
ATOM     14  N           0     136.282 133.154 148.263  0.00  0.00    -0.191 N 
ATOM     15  N           0     137.039 131.271 146.949  0.00  0.00    -0.183 N 
ATOM     16  C           0     136.882 130.243 147.993  0.00  0.00     0.150 C 
ATOM     17  C           0     135.351 130.049 148.113  0.00  0.00     0.093 C 
ATOM     18  C           0     134.736 131.365 147.572  0.00  0.00     0.209 C 
ATOM     19  H           0     138.504 132.659 144.480  0.00  0.00     0.178 HD
ATOM     20  H           0     136.299 135.200 145.823  0.00  0.00     0.178 HD
ATOM     21  H           0     136.514 132.908 149.172  0.00  0.00     0.180 HD
ENDROOT
BRANCH   6  22
ATOM     22  C           0     135.630 131.568 144.036  0.00  0.00     0.208 C 
BRANCH  22  23
ATOM     23  O           0     134.239 131.947 143.864  0.00  0.00    -0.302 OA
BRANCH  23  24
ATOM     24  C           0     133.800 132.366 142.662  0.00  0.00     0.362 C 
ATOM     25  N           0     132.482 132.340 142.380  0.00  0.00    -0.337 N 
ATOM     26  C           0     132.003 132.796 141.073  0.00  0.00     0.154 C 
ATOM     27  C           0     131.528 131.854 143.379  0.00  0.00     0.154 C 
ATOM     28  O           0     134.591 132.769 141.833  0.00  0.00    -0.238 OA
ENDBRANCH  23  24
ENDBRANCH  22  23
ENDBRANCH   6  22
BRANCH  18  29
ATOM     29  O           0     133.973 132.015 148.591  0.00  0.00    -0.362 OA
ATOM     30  H           0     134.044 131.467 149.384  0.00  0.00     0.213 HD
ENDBRANCH  18  29
BRANCH  18  31
ATOM     31  O           0     133.920 131.099 146.429  0.00  0.00    -0.362 OA
ATOM     32  H           0     134.513 131.045 145.668  0.00  0.00     0.213 HD
ENDBRANCH  18  31
TORSDOF 5
ENDMDL
MODEL 4
REMARK VINA RESULT:      -6.7      4.389      7.280
REMARK  5 active torsions:
REMARK  status: ('A' for Active; 'I' for Inactive)
REMARK    1  A    between atoms: C_6  and  C_7 
REMARK    2  A    between atoms: C_7  and  O_8 
REMARK    3  A    between atoms: O_8  and  C_9 
REMARK       I    between atoms: C_9  and  N_10 
REMARK    4  A    between atoms: C_25  and  O_26 
REMARK    5  A    between atoms: C_25  and  O_27 
ROOT
ATOM      1  N           0     133.321 127.293 147.258  0.00  0.00    -0.235 N 
ATOM      2  H           0     133.649 126.834 146.469  0.00  0.00     0.174 HD
ATOM      3  H           0     132.907 126.788 147.977  0.00  0.00     0.174 HD
ATOM      4  C           0     133.440 128.588 147.356  0.00  0.00     0.672 C 
ATOM      5  N           0     134.028 129.350 146.362  0.00  0.00    -0.218 N 
ATOM      6  C           0     133.599 130.737 146.211  0.00  0.00     0.151 C 
ATOM      7  C           0     133.638 131.508 147.516  0.00  0.00     0.180 C 
ATOM      8  N           0     135.039 131.865 147.827  0.00  0.00    -0.216 N 
ATOM      9  C           0     135.215 131.708 149.181  0.00  0.00     0.670 C 
ATOM     10  N           0     136.181 132.260 149.862  0.00  0.00    -0.235 N 
ATOM     11  H           0     136.831 132.821 149.412  0.00  0.00     0.174 HD
ATOM     12  H           0     136.248 132.108 150.818  0.00  0.00     0.174 HD
ATOM     13  C           0     133.189 130.704 148.726  0.00  0.00     0.217 C 
ATOM     14  N           0     134.249 130.900 149.727  0.00  0.00    -0.191 N 
ATOM     15  N           0     132.987 129.281 148.448  0.00  0.00    -0.183 N 
ATOM     16  C           0     132.153 128.782 149.556  0.00  0.00     0.150 C 
ATOM     17  C           0     131.154 129.932 149.831  0.00  0.00     0.093 C 
ATOM     18  C           0     131.846 131.205 149.282  0.00  0.00     0.209 C 
ATOM     19  H           0     134.708 128.973 145.781  0.00  0.00     0.178 HD
ATOM     20  H           0     135.711 132.156 147.192  0.00  0.00     0.178 HD
ATOM     21  H           0     134.263 130.525 150.622  0.00  0.00     0.180 HD
ENDROOT
BRANCH   6  22
ATOM     22  C           0     132.167 130.756 145.672  0.00  0.00     0.208 C 
BRANCH  22  23
ATOM     23  O           0     132.189 130.554 144.234  0.00  0.00    -0.302 OA
BRANCH  23  24
ATOM     24  C           0     131.984 131.595 143.405  0.00  0.00     0.362 C 
ATOM     25  N           0     132.993 132.057 142.641  0.00  0.00    -0.337 N 
ATOM     26  C           0     132.771 133.189 141.739  0.00  0.00     0.154 C 
ATOM     27  C           0     134.314 131.426 142.712  0.00  0.00     0.154 C 
ATOM     28  O           0     130.889 132.118 143.346  0.00  0.00    -0.238 OA
ENDBRANCH  23  24
ENDBRANCH  22  23
ENDBRANCH   6  22
BRANCH  18  29
ATOM     29  O           0     132.057 132.150 150.333  0.00  0.00    -0.362 OA
ATOM     30  H           0     132.824 132.682 150.080  0.00  0.00     0.213 HD
ENDBRANCH  18  29
BRANCH  18  31
ATOM     31  O           0     131.061 131.787 148.238  0.00  0.00    -0.362 OA
ATOM     32  H           0     130.138 131.575 148.431  0.00  0.00     0.213 HD
ENDBRANCH  18  31
TORSDOF 5
ENDMDL
MODEL 5
REMARK VINA RESULT:      -6.7      3.064      5.638
REMARK  5 active torsions:
REMARK  status: ('A' for Active; 'I' for Inactive)
REMARK    1  A    between atoms: C_6  and  C_7 
REMARK    2  A    between atoms: C_7  and  O_8 
REMARK    3  A    between atoms: O_8  and  C_9 
REMARK       I    between atoms: C_9  and  N_10 
REMARK    4  A    between atoms: C_25  and  O_26 
REMARK    5  A    between atoms: C_25  and  O_27 
ROOT
ATOM      1  N           0     138.958 130.513 145.779  0.00  0.00    -0.235 N 
ATOM      2  H           0     139.049 129.686 145.280  0.00  0.00     0.174 HD
ATOM      3  H           0     139.682 130.818 146.349  0.00  0.00     0.174 HD
ATOM      4  C           0     137.867 131.220 145.677  0.00  0.00     0.672 C 
ATOM      5  N           0     136.810 130.831 144.872  0.00  0.00    -0.218 N 
ATOM      6  C           0     135.465 131.254 145.247  0.00  0.00     0.151 C 
ATOM      7  C           0     135.370 132.745 145.505  0.00  0.00     0.180 C 
ATOM      8  N           0     135.349 133.461 144.211  0.00  0.00    -0.216 N 
ATOM      9  C           0     136.113 134.594 144.352  0.00  0.00     0.670 C 
ATOM     10  N           0     136.036 135.631 143.566  0.00  0.00    -0.235 N 
ATOM     11  H           0     135.410 135.633 142.827  0.00  0.00     0.174 HD
ATOM     12  H           0     136.607 136.401 143.722  0.00  0.00     0.174 HD
ATOM     13  C           0     136.575 133.328 146.225  0.00  0.00     0.217 C 
ATOM     14  N           0     136.967 134.498 145.423  0.00  0.00    -0.191 N 
ATOM     15  N           0     137.690 132.392 146.366  0.00  0.00    -0.183 N 
ATOM     16  C           0     138.536 132.950 147.436  0.00  0.00     0.150 C 
ATOM     17  C           0     137.528 133.516 148.465  0.00  0.00     0.093 C 
ATOM     18  C           0     136.230 133.769 147.658  0.00  0.00     0.209 C 
ATOM     19  H           0     136.961 130.292 144.079  0.00  0.00     0.178 HD
ATOM     20  H           0     134.881 133.182 143.409  0.00  0.00     0.178 HD
ATOM     21  H           0     137.702 135.101 145.618  0.00  0.00     0.180 HD
ENDROOT
BRANCH   6  22
ATOM     22  C           0     135.048 130.508 146.516  0.00  0.00     0.208 C 
BRANCH  22  23
ATOM     23  O           0     133.670 130.068 146.388  0.00  0.00    -0.302 OA
BRANCH  23  24
ATOM     24  C           0     132.754 130.451 147.298  0.00  0.00     0.362 C 
ATOM     25  N           0     131.440 130.362 147.010  0.00  0.00    -0.337 N 
ATOM     26  C           0     130.443 130.778 147.999  0.00  0.00     0.154 C 
ATOM     27  C           0     131.008 129.852 145.706  0.00  0.00     0.154 C 
ATOM     28  O           0     133.111 130.874 148.379  0.00  0.00    -0.238 OA
ENDBRANCH  23  24
ENDBRANCH  22  23
ENDBRANCH   6  22
BRANCH  18  29
ATOM     29  O           0     135.886 135.156 147.688  0.00  0.00    -0.362 OA
ATOM     30  H           0     136.236 135.549 146.876  0.00  0.00     0.213 HD
ENDBRANCH  18  29
BRANCH  18  31
ATOM     31  O           0     135.159 132.978 148.177  0.00  0.00    -0.362 OA
ATOM     32  H           0     135.312 132.890 149.127  0.00  0.00     0.213 HD
ENDBRANCH  18  31
TORSDOF 5
ENDMDL
MODEL 6
REMARK VINA RESULT:      -6.7      2.348      5.614
REMARK  5 active torsions:
REMARK  status: ('A' for Active; 'I' for Inactive)
REMARK    1  A    between atoms: C_6  and  C_7 
REMARK    2  A    between atoms: C_7  and  O_8 
REMARK    3  A    between atoms: O_8  and  C_9 
REMARK       I    between atoms: C_9  and  N_10 
REMARK    4  A    between atoms: C_25  and  O_26 
REMARK    5  A    between atoms: C_25  and  O_27 
ROOT
ATOM      1  N           0     139.594 133.453 143.314  0.00  0.00    -0.235 N 
ATOM      2  H           0     139.528 133.893 142.452  0.00  0.00     0.174 HD
ATOM      3  H           0     140.456 133.146 143.638  0.00  0.00     0.174 HD
ATOM      4  C           0     138.526 133.279 144.041  0.00  0.00     0.672 C 
ATOM      5  N           0     137.275 133.705 143.626  0.00  0.00    -0.218 N 
ATOM      6  C           0     136.104 132.982 144.110  0.00  0.00     0.151 C 
ATOM      7  C           0     136.097 132.818 145.617  0.00  0.00     0.180 C 
ATOM      8  N           0     135.697 134.098 146.242  0.00  0.00    -0.216 N 
ATOM      9  C           0     136.475 134.273 147.361  0.00  0.00     0.670 C 
ATOM     10  N           0     136.173 135.076 148.343  0.00  0.00    -0.235 N 
ATOM     11  H           0     135.355 135.595 148.311  0.00  0.00     0.174 HD
ATOM     12  H           0     136.768 135.153 149.106  0.00  0.00     0.174 HD
ATOM     13  C           0     137.465 132.532 146.216  0.00  0.00     0.217 C 
ATOM     14  N           0     137.607 133.499 147.317  0.00  0.00    -0.191 N 
ATOM     15  N           0     138.567 132.658 145.262  0.00  0.00    -0.183 N 
ATOM     16  C           0     139.695 131.931 145.870  0.00  0.00     0.150 C 
ATOM     17  C           0     139.041 130.695 146.534  0.00  0.00     0.093 C 
ATOM     18  C           0     137.563 131.098 146.765  0.00  0.00     0.209 C 
ATOM     19  H           0     137.181 134.465 143.030  0.00  0.00     0.178 HD
ATOM     20  H           0     135.011 134.702 145.921  0.00  0.00     0.178 HD
ATOM     21  H           0     138.370 133.575 147.912  0.00  0.00     0.180 HD
ENDROOT
BRANCH   6  22
ATOM     22  C           0     136.078 131.594 143.465  0.00  0.00     0.208 C 
BRANCH  22  23
ATOM     23  O           0     134.924 130.858 143.947  0.00  0.00    -0.302 OA
BRANCH  23  24
ATOM     24  C           0     133.695 131.155 143.484  0.00  0.00     0.362 C 
ATOM     25  N           0     132.646 131.192 144.330  0.00  0.00    -0.337 N 
ATOM     26  C           0     131.309 131.515 143.828  0.00  0.00     0.154 C 
ATOM     27  C           0     132.843 130.906 145.754  0.00  0.00     0.154 C 
ATOM     28  O           0     133.530 131.392 142.304  0.00  0.00    -0.238 OA
ENDBRANCH  23  24
ENDBRANCH  22  23
ENDBRANCH   6  22
BRANCH  18  29
ATOM     29  O           0     137.250 131.070 148.159  0.00  0.00    -0.362 OA
ATOM     30  H           0     136.603 130.363 148.286  0.00  0.00     0.213 HD
ENDBRANCH  18  29
BRANCH  18  31
ATOM     31  O           0     136.690 130.228 146.040  0.00  0.00    -0.362 OA
ATOM     32  H           0     136.768 130.468 145.107  0.00  0.00     0.213 HD
ENDBRANCH  18  31
TORSDOF 5
ENDMDL
MODEL 7
REMARK VINA RESULT:      -6.6      3.742      6.227
REMARK  5 active torsions:
REMARK  status: ('A' for Active; 'I' for Inactive)
REMARK    1  A    between atoms: C_6  and  C_7 
REMARK    2  A    between atoms: C_7  and  O_8 
REMARK    3  A    between atoms: O_8  and  C_9 
REMARK       I    between atoms: C_9  and  N_10 
REMARK    4  A    between atoms: C_25  and  O_26 
REMARK    5  A    between atoms: C_25  and  O_27 
ROOT
ATOM      1  N           0     132.628 131.606 143.774  0.00  0.00    -0.235 N 
ATOM      2  H           0     133.205 131.815 143.022  0.00  0.00     0.174 HD
ATOM      3  H           0     131.683 131.824 143.737  0.00  0.00     0.174 HD
ATOM      4  C           0     133.121 131.025 144.833  0.00  0.00     0.672 C 
ATOM      5  N           0     134.460 130.688 144.931  0.00  0.00    -0.218 N 
ATOM      6  C           0     135.066 130.643 146.258  0.00  0.00     0.151 C 
ATOM      7  C           0     134.269 129.803 147.237  0.00  0.00     0.180 C 
ATOM      8  N           0     134.515 128.371 146.961  0.00  0.00    -0.216 N 
ATOM      9  C           0     133.320 127.709 147.109  0.00  0.00     0.670 C 
ATOM     10  N           0     133.214 126.424 147.300  0.00  0.00    -0.235 N 
ATOM     11  H           0     134.011 125.873 147.346  0.00  0.00     0.174 HD
ATOM     12  H           0     132.338 126.019 147.398  0.00  0.00     0.174 HD
ATOM     13  C           0     132.762 129.948 147.097  0.00  0.00     0.217 C 
ATOM     14  N           0     132.252 128.569 147.031  0.00  0.00    -0.191 N 
ATOM     15  N           0     132.349 130.715 145.921  0.00  0.00    -0.183 N 
ATOM     16  C           0     130.959 131.125 146.192  0.00  0.00     0.150 C 
ATOM     17  C           0     130.946 131.462 147.702  0.00  0.00     0.093 C 
ATOM     18  C           0     132.141 130.678 148.300  0.00  0.00     0.209 C 
ATOM     19  H           0     134.982 130.485 144.138  0.00  0.00     0.178 HD
ATOM     20  H           0     135.365 127.972 146.719  0.00  0.00     0.178 HD
ATOM     21  H           0     131.321 128.310 146.949  0.00  0.00     0.180 HD
ENDROOT
BRANCH   6  22
ATOM     22  C           0     135.168 132.069 146.803  0.00  0.00     0.208 C 
BRANCH  22  23
ATOM     23  O           0     136.393 132.683 146.324  0.00  0.00    -0.302 OA
BRANCH  23  24
ATOM     24  C           0     136.410 133.314 145.135  0.00  0.00     0.362 C 
ATOM     25  N           0     137.548 133.363 144.414  0.00  0.00    -0.337 N 
ATOM     26  C           0     137.567 134.050 143.120  0.00  0.00     0.154 C 
ATOM     27  C           0     138.767 132.730 144.924  0.00  0.00     0.154 C 
ATOM     28  O           0     135.400 133.840 144.712  0.00  0.00    -0.238 OA
ENDBRANCH  23  24
ENDBRANCH  22  23
ENDBRANCH   6  22
BRANCH  18  29
ATOM     29  O           0     131.683 129.739 149.276  0.00  0.00    -0.362 OA
ATOM     30  H           0     132.339 129.736 149.988  0.00  0.00     0.213 HD
ENDBRANCH  18  29
BRANCH  18  31
ATOM     31  O           0     133.088 131.578 148.878  0.00  0.00    -0.362 OA
ATOM     32  H           0     133.382 132.167 148.170  0.00  0.00     0.213 HD
ENDBRANCH  18  31
TORSDOF 5
ENDMDL
MODEL 8
REMARK VINA RESULT:      -6.6      9.660     12.446
REMARK  5 active torsions:
REMARK  status: ('A' for Active; 'I' for Inactive)
REMARK    1  A    between atoms: C_6  and  C_7 
REMARK    2  A    between atoms: C_7  and  O_8 
REMARK    3  A    between atoms: O_8  and  C_9 
REMARK       I    between atoms: C_9  and  N_10 
REMARK    4  A    between atoms: C_25  and  O_26 
REMARK    5  A    between atoms: C_25  and  O_27 
ROOT
ATOM      1  N           0     128.932 133.873 131.991  0.00  0.00    -0.235 N 
ATOM      2  H           0     128.269 133.399 131.465  0.00  0.00     0.174 HD
ATOM      3  H           0     129.029 134.834 131.898  0.00  0.00     0.174 HD
ATOM      4  C           0     129.689 133.220 132.828  0.00  0.00     0.672 C 
ATOM      5  N           0     129.584 131.851 133.001  0.00  0.00    -0.218 N 
ATOM      6  C           0     130.774 131.114 133.417  0.00  0.00     0.151 C 
ATOM      7  C           0     131.441 131.719 134.636  0.00  0.00     0.180 C 
ATOM      8  N           0     130.667 131.357 135.843  0.00  0.00    -0.216 N 
ATOM      9  C           0     130.643 132.457 136.665  0.00  0.00     0.670 C 
ATOM     10  N           0     130.378 132.412 137.941  0.00  0.00    -0.235 N 
ATOM     11  H           0     130.181 131.562 138.365  0.00  0.00     0.174 HD
ATOM     12  H           0     130.378 133.228 138.465  0.00  0.00     0.174 HD
ATOM     13  C           0     131.449 133.239 134.650  0.00  0.00     0.217 C 
ATOM     14  N           0     130.934 133.609 135.978  0.00  0.00    -0.191 N 
ATOM     15  N           0     130.643 133.844 133.589  0.00  0.00    -0.183 N 
ATOM     16  C           0     131.120 135.234 133.481  0.00  0.00     0.150 C 
ATOM     17  C           0     132.651 135.131 133.683  0.00  0.00     0.093 C 
ATOM     18  C           0     132.865 133.808 134.462  0.00  0.00     0.209 C 
ATOM     19  H           0     128.742 131.393 132.851  0.00  0.00     0.178 HD
ATOM     20  H           0     130.251 130.499 136.021  0.00  0.00     0.178 HD
ATOM     21  H           0     130.821 134.513 136.312  0.00  0.00     0.180 HD
ENDROOT
BRANCH   6  22
ATOM     22  C           0     131.777 131.104 132.261  0.00  0.00     0.208 C 
BRANCH  22  23
ATOM     23  O           0     131.798 129.787 131.650  0.00  0.00    -0.302 OA
BRANCH  23  24
ATOM     24  C           0     131.997 128.695 132.412  0.00  0.00     0.362 C 
ATOM     25  N           0     131.117 127.674 132.370  0.00  0.00    -0.337 N 
ATOM     26  C           0     131.333 126.485 133.199  0.00  0.00     0.154 C 
ATOM     27  C           0     129.944 127.753 131.496  0.00  0.00     0.154 C 
ATOM     28  O           0     132.969 128.628 133.137  0.00  0.00    -0.238 OA
ENDBRANCH  23  24
ENDBRANCH  22  23
ENDBRANCH   6  22
BRANCH  18  29
ATOM     29  O           0     133.476 134.067 135.728  0.00  0.00    -0.362 OA
ATOM     30  H           0     133.825 133.223 136.047  0.00  0.00     0.213 HD
ENDBRANCH  18  29
BRANCH  18  31
ATOM     31  O           0     133.666 132.904 133.696  0.00  0.00    -0.362 OA
ATOM     32  H           0     133.312 132.019 133.850  0.00  0.00     0.213 HD
ENDBRANCH  18  31
TORSDOF 5
ENDMDL
MODEL 9
REMARK VINA RESULT:      -6.6      3.148      5.950
REMARK  5 active torsions:
REMARK  status: ('A' for Active; 'I' for Inactive)
REMARK    1  A    between atoms: C_6  and  C_7 
REMARK    2  A    between atoms: C_7  and  O_8 
REMARK    3  A    between atoms: O_8  and  C_9 
REMARK       I    between atoms: C_9  and  N_10 
REMARK    4  A    between atoms: C_25  and  O_26 
REMARK    5  A    between atoms: C_25  and  O_27 
ROOT
ATOM      1  N           0     136.156 134.992 147.835  0.00  0.00    -0.235 N 
ATOM      2  H           0     135.921 135.257 148.738  0.00  0.00     0.174 HD
ATOM      3  H           0     136.311 135.668 147.155  0.00  0.00     0.174 HD
ATOM      4  C           0     136.269 133.728 147.535  0.00  0.00     0.672 C 
ATOM      5  N           0     136.065 132.728 148.470  0.00  0.00    -0.218 N 
ATOM      6  C           0     135.594 131.429 148.000  0.00  0.00     0.151 C 
ATOM      7  C           0     136.431 130.880 146.861  0.00  0.00     0.180 C 
ATOM      8  N           0     137.697 130.343 147.404  0.00  0.00    -0.216 N 
ATOM      9  C           0     138.699 130.680 146.527  0.00  0.00     0.670 C 
ATOM     10  N           0     139.859 130.086 146.478  0.00  0.00    -0.235 N 
ATOM     11  H           0     140.057 129.358 147.086  0.00  0.00     0.174 HD
ATOM     12  H           0     140.524 130.374 145.832  0.00  0.00     0.174 HD
ATOM     13  C           0     136.880 131.930 145.858  0.00  0.00     0.217 C 
ATOM     14  N           0     138.328 131.717 145.707  0.00  0.00    -0.191 N 
ATOM     15  N           0     136.593 133.304 146.272  0.00  0.00    -0.183 N 
ATOM     16  C           0     136.671 134.108 145.039  0.00  0.00     0.150 C 
ATOM     17  C           0     136.040 133.205 143.953  0.00  0.00     0.093 C 
ATOM     18  C           0     136.183 131.761 144.497  0.00  0.00     0.209 C 
ATOM     19  H           0     136.231 132.887 149.413  0.00  0.00     0.178 HD
ATOM     20  H           0     137.801 129.844 148.228  0.00  0.00     0.178 HD
ATOM     21  H           0     138.920 132.221 145.127  0.00  0.00     0.180 HD
ENDROOT
BRANCH   6  22
ATOM     22  C           0     134.147 131.571 147.524  0.00  0.00     0.208 C 
BRANCH  22  23
ATOM     23  O           0     133.602 130.257 147.234  0.00  0.00    -0.302 OA
BRANCH  23  24
ATOM     24  C           0     132.378 130.142 146.686  0.00  0.00     0.362 C 
ATOM     25  N           0     131.334 129.748 147.444  0.00  0.00    -0.337 N 
ATOM     26  C           0     130.002 129.623 146.848  0.00  0.00     0.154 C 
ATOM     27  C           0     131.533 129.443 148.863  0.00  0.00     0.154 C 
ATOM     28  O           0     132.212 130.395 145.510  0.00  0.00    -0.238 OA
ENDBRANCH  23  24
ENDBRANCH  22  23
ENDBRANCH   6  22
BRANCH  18  29
ATOM     29  O           0     136.985 130.972 143.616  0.00  0.00    -0.362 OA
ATOM     30  H           0     136.933 131.388 142.744  0.00  0.00     0.213 HD
ENDBRANCH  18  29
BRANCH  18  31
ATOM     31  O           0     134.896 131.164 144.669  0.00  0.00    -0.362 OA
ATOM     32  H           0     134.843 130.872 145.589  0.00  0.00     0.213 HD
ENDBRANCH  18  31
TORSDOF 5
ENDMDL
