MODEL 1
REMARK VINA RESULT:      -7.9      0.000      0.000
REMARK  5 active torsions:
REMARK  status: ('A' for Active; 'I' for Inactive)
REMARK    1  A    between atoms: C_6  and  C_7 
REMARK    2  A    between atoms: C_7  and  O_8 
REMARK    3  A    between atoms: O_8  and  C_9 
REMARK       I    between atoms: C_9  and  N_10 
REMARK    4  A    between atoms: C_23  and  O_24 
REMARK    5  A    between atoms: C_23  and  O_25 
ROOT
ATOM      1  N           0     135.053 136.792 143.154  0.00  0.00    -0.235 N 
ATOM      2  H           0     134.271 137.309 142.907  0.00  0.00     0.174 HD
ATOM      3  H           0     135.896 137.240 143.328  0.00  0.00     0.174 HD
ATOM      4  C           0     134.971 135.495 143.257  0.00  0.00     0.672 C 
ATOM      5  N           0     133.791 134.810 143.024  0.00  0.00    -0.218 N 
ATOM      6  C           0     133.874 133.433 142.544  0.00  0.00     0.151 C 
ATOM      7  C           0     134.788 132.573 143.395  0.00  0.00     0.180 C 
ATOM      8  N           0     134.088 132.207 144.644  0.00  0.00    -0.216 N 
ATOM      9  C           0     135.004 132.267 145.665  0.00  0.00     0.670 C 
ATOM     10  N           0     134.857 131.677 146.818  0.00  0.00    -0.235 N 
ATOM     11  H           0     134.059 131.155 146.996  0.00  0.00     0.174 HD
ATOM     12  H           0     135.544 131.760 147.497  0.00  0.00     0.174 HD
ATOM     13  C           0     136.043 133.284 143.873  0.00  0.00     0.217 C 
ATOM     14  N           0     136.096 133.025 145.322  0.00  0.00    -0.191 N 
ATOM     15  N           0     136.050 134.720 143.597  0.00  0.00    -0.183 N 
ATOM     16  C           0     137.461 135.132 143.706  0.00  0.00     0.150 C 
ATOM     17  C           0     138.252 133.957 143.083  0.00  0.00     0.093 C 
ATOM     18  C           0     137.310 132.731 143.197  0.00  0.00     0.209 C 
ATOM     19  H           0     132.933 135.233 143.176  0.00  0.00     0.178 HD
ATOM     20  H           0     133.152 131.967 144.728  0.00  0.00     0.178 HD
ATOM     21  H           0     136.786 133.335 145.929  0.00  0.00     0.180 HD
ENDROOT
BRANCH   6  22
ATOM     22  C           0     134.399 133.442 141.108  0.00  0.00     0.208 C 
BRANCH  22  23
ATOM     23  O           0     133.309 133.730 140.195  0.00  0.00    -0.302 OA
BRANCH  23  24
ATOM     24  C           0     133.384 134.792 139.369  0.00  0.00     0.358 C 
ATOM     25  N           0     133.543 136.030 139.878  0.00  0.00    -0.346 N 
ATOM     26  H           0     133.603 136.157 140.838  0.00  0.00     0.161 HD
ATOM     27  H           0     133.596 136.795 139.283  0.00  0.00     0.161 HD
ATOM     28  O           0     133.309 134.633 138.167  0.00  0.00    -0.239 OA
ENDBRANCH  23  24
ENDBRANCH  22  23
ENDBRANCH   6  22
BRANCH  18  29
ATOM     29  O           0     137.910 131.717 144.005  0.00  0.00    -0.362 OA
ATOM     30  H           0     137.810 131.997 144.925  0.00  0.00     0.213 HD
ENDBRANCH  18  29
BRANCH  18  31
ATOM     31  O           0     136.998 132.220 141.900  0.00  0.00    -0.362 OA
ATOM     32  H           0     136.970 132.978 141.300  0.00  0.00     0.213 HD
ENDBRANCH  18  31
TORSDOF 5
ENDMDL
MODEL 2
REMARK VINA RESULT:      -7.5      1.920      5.627
REMARK  5 active torsions:
REMARK  status: ('A' for Active; 'I' for Inactive)
REMARK    1  A    between atoms: C_6  and  C_7 
REMARK    2  A    between atoms: C_7  and  O_8 
REMARK    3  A    between atoms: O_8  and  C_9 
REMARK       I    between atoms: C_9  and  N_10 
REMARK    4  A    between atoms: C_23  and  O_24 
REMARK    5  A    between atoms: C_23  and  O_25 
ROOT
ATOM      1  N           0     134.754 131.883 146.528  0.00  0.00    -0.235 N 
ATOM      2  H           0     134.985 131.932 147.469  0.00  0.00     0.174 HD
ATOM      3  H           0     134.085 131.248 146.226  0.00  0.00     0.174 HD
ATOM      4  C           0     135.337 132.673 145.671  0.00  0.00     0.672 C 
ATOM      5  N           0     136.292 133.599 146.053  0.00  0.00    -0.218 N 
ATOM      6  C           0     137.314 133.980 145.082  0.00  0.00     0.151 C 
ATOM      7  C           0     136.725 134.396 143.748  0.00  0.00     0.180 C 
ATOM      8  N           0     136.176 135.763 143.865  0.00  0.00    -0.216 N 
ATOM      9  C           0     135.000 135.800 143.155  0.00  0.00     0.670 C 
ATOM     10  N           0     134.433 136.895 142.734  0.00  0.00    -0.235 N 
ATOM     11  H           0     134.843 137.755 142.917  0.00  0.00     0.174 HD
ATOM     12  H           0     133.601 136.850 142.236  0.00  0.00     0.174 HD
ATOM     13  C           0     135.534 133.560 143.306  0.00  0.00     0.217 C 
ATOM     14  N           0     134.497 134.541 142.944  0.00  0.00    -0.191 N 
ATOM     15  N           0     135.047 132.637 144.332  0.00  0.00    -0.183 N 
ATOM     16  C           0     134.237 131.641 143.607  0.00  0.00     0.150 C 
ATOM     17  C           0     135.012 131.405 142.287  0.00  0.00     0.093 C 
ATOM     18  C           0     135.869 132.680 142.089  0.00  0.00     0.209 C 
ATOM     19  H           0     136.283 133.984 146.942  0.00  0.00     0.178 HD
ATOM     20  H           0     136.573 136.502 144.353  0.00  0.00     0.178 HD
ATOM     21  H           0     133.610 134.332 142.611  0.00  0.00     0.180 HD
ENDROOT
BRANCH   6  22
ATOM     22  C           0     138.250 132.791 144.858  0.00  0.00     0.208 C 
BRANCH  22  23
ATOM     23  O           0     138.765 132.332 146.135  0.00  0.00    -0.302 OA
BRANCH  23  24
ATOM     24  C           0     138.673 131.032 146.471  0.00  0.00     0.358 C 
ATOM     25  N           0     139.789 130.285 146.588  0.00  0.00    -0.346 N 
ATOM     26  H           0     140.659 130.684 146.430  0.00  0.00     0.161 HD
ATOM     27  H           0     139.722 129.348 146.830  0.00  0.00     0.161 HD
ATOM     28  O           0     137.583 130.532 146.670  0.00  0.00    -0.239 OA
ENDBRANCH  23  24
ENDBRANCH  22  23
ENDBRANCH   6  22
BRANCH  18  29
ATOM     29  O           0     135.506 133.340 140.876  0.00  0.00    -0.362 OA
ATOM     30  H           0     135.155 134.207 141.123  0.00  0.00     0.213 HD
ENDBRANCH  18  29
BRANCH  18  31
ATOM     31  O           0     137.259 132.351 142.083  0.00  0.00    -0.362 OA
ATOM     32  H           0     137.487 132.118 141.172  0.00  0.00     0.213 HD
ENDBRANCH  18  31
TORSDOF 5
ENDMDL
MODEL 3
REMARK VINA RESULT:      -6.8      5.297      9.783
REMARK  5 active torsions:
REMARK  status: ('A' for Active; 'I' for Inactive)
REMARK    1  A    between atoms: C_6  and  C_7 
REMARK    2  A    between atoms: C_7  and  O_8 
REMARK    3  A    between atoms: O_8  and  C_9 
REMARK       I    between atoms: C_9  and  N_10 
REMARK    4  A    between atoms: C_23  and  O_24 
REMARK    5  A    between atoms: C_23  and  O_25 
ROOT
ATOM      1  N           0     131.419 132.144 135.004  0.00  0.00    -0.235 N 
ATOM      2  H           0     130.832 131.800 135.695  0.00  0.00     0.174 HD
ATOM      3  H           0     131.791 131.542 134.340  0.00  0.00     0.174 HD
ATOM      4  C           0     131.704 133.415 134.964  0.00  0.00     0.672 C 
ATOM      5  N           0     131.195 134.314 135.885  0.00  0.00    -0.218 N 
ATOM      6  C           0     131.977 135.508 136.191  0.00  0.00     0.151 C 
ATOM      7  C           0     132.405 136.261 134.946  0.00  0.00     0.180 C 
ATOM      8  N           0     131.253 137.023 134.419  0.00  0.00    -0.216 N 
ATOM      9  C           0     131.289 136.934 133.049  0.00  0.00     0.670 C 
ATOM     10  N           0     130.671 137.751 132.245  0.00  0.00    -0.235 N 
ATOM     11  H           0     130.143 138.480 132.607  0.00  0.00     0.174 HD
ATOM     12  H           0     130.739 137.632 131.285  0.00  0.00     0.174 HD
ATOM     13  C           0     132.813 135.366 133.788  0.00  0.00     0.217 C 
ATOM     14  N           0     132.059 135.876 132.631  0.00  0.00    -0.191 N 
ATOM     15  N           0     132.533 133.947 134.011  0.00  0.00    -0.183 N 
ATOM     16  C           0     133.372 133.226 133.037  0.00  0.00     0.150 C 
ATOM     17  C           0     134.697 134.025 133.007  0.00  0.00     0.093 C 
ATOM     18  C           0     134.323 135.445 133.503  0.00  0.00     0.209 C 
ATOM     19  H           0     130.341 134.155 136.315  0.00  0.00     0.178 HD
ATOM     20  H           0     130.591 137.499 134.945  0.00  0.00     0.178 HD
ATOM     21  H           0     132.100 135.527 131.727  0.00  0.00     0.180 HD
ENDROOT
BRANCH   6  22
ATOM     22  C           0     133.227 135.094 136.970  0.00  0.00     0.208 C 
BRANCH  22  23
ATOM     23  O           0     132.837 134.330 138.141  0.00  0.00    -0.302 OA
BRANCH  23  24
ATOM     24  C           0     133.050 134.829 139.374  0.00  0.00     0.358 C 
ATOM     25  N           0     133.509 136.087 139.521  0.00  0.00    -0.346 N 
ATOM     26  H           0     133.686 136.634 138.739  0.00  0.00     0.161 HD
ATOM     27  H           0     133.663 136.447 140.408  0.00  0.00     0.161 HD
ATOM     28  O           0     132.828 134.145 140.353  0.00  0.00    -0.239 OA
ENDBRANCH  23  24
ENDBRANCH  22  23
ENDBRANCH   6  22
BRANCH  18  29
ATOM     29  O           0     134.594 136.414 132.490  0.00  0.00    -0.362 OA
ATOM     30  H           0     134.396 135.994 131.641  0.00  0.00     0.213 HD
ENDBRANCH  18  29
BRANCH  18  31
ATOM     31  O           0     135.038 135.759 134.700  0.00  0.00    -0.362 OA
ATOM     32  H           0     134.828 136.679 134.917  0.00  0.00     0.213 HD
ENDBRANCH  18  31
TORSDOF 5
ENDMDL
MODEL 4
REMARK VINA RESULT:      -6.8      2.381      5.144
REMARK  5 active torsions:
REMARK  status: ('A' for Active; 'I' for Inactive)
REMARK    1  A    between atoms: C_6  and  C_7 
REMARK    2  A    between atoms: C_7  and  O_8 
REMARK    3  A    between atoms: O_8  and  C_9 
REMARK       I    between atoms: C_9  and  N_10 
REMARK    4  A    between atoms: C_23  and  O_24 
REMARK    5  A    between atoms: C_23  and  O_25 
ROOT
ATOM      1  N           0     136.021 134.631 146.678  0.00  0.00    -0.235 N 
ATOM      2  H           0     136.470 135.456 146.918  0.00  0.00     0.174 HD
ATOM      3  H           0     135.572 134.108 147.360  0.00  0.00     0.174 HD
ATOM      4  C           0     136.018 134.226 145.439  0.00  0.00     0.672 C 
ATOM      5  N           0     136.641 134.939 144.429  0.00  0.00    -0.218 N 
ATOM      6  C           0     137.144 134.204 143.272  0.00  0.00     0.151 C 
ATOM      7  C           0     136.100 133.288 142.663  0.00  0.00     0.180 C 
ATOM      8  N           0     135.150 134.095 141.869  0.00  0.00    -0.216 N 
ATOM      9  C           0     133.893 133.582 142.079  0.00  0.00     0.670 C 
ATOM     10  N           0     132.876 133.790 141.291  0.00  0.00    -0.235 N 
ATOM     11  H           0     132.981 134.338 140.498  0.00  0.00     0.174 HD
ATOM     12  H           0     132.014 133.396 141.498  0.00  0.00     0.174 HD
ATOM     13  C           0     135.219 132.585 143.682  0.00  0.00     0.217 C 
ATOM     14  N           0     133.841 132.822 143.221  0.00  0.00    -0.191 N 
ATOM     15  N           0     135.403 133.064 145.052  0.00  0.00    -0.183 N 
ATOM     16  C           0     134.840 132.008 145.914  0.00  0.00     0.150 C 
ATOM     17  C           0     135.250 130.687 145.218  0.00  0.00     0.093 C 
ATOM     18  C           0     135.498 131.073 143.737  0.00  0.00     0.209 C 
ATOM     19  H           0     136.740 135.901 144.488  0.00  0.00     0.178 HD
ATOM     20  H           0     135.372 134.851 141.302  0.00  0.00     0.178 HD
ATOM     21  H           0     133.035 132.496 143.649  0.00  0.00     0.180 HD
ENDROOT
BRANCH   6  22
ATOM     22  C           0     138.345 133.361 143.707  0.00  0.00     0.208 C 
BRANCH  22  23
ATOM     23  O           0     138.257 133.090 145.130  0.00  0.00    -0.302 OA
BRANCH  23  24
ATOM     24  C           0     139.038 132.143 145.684  0.00  0.00     0.358 C 
ATOM     25  N           0     138.626 130.860 145.710  0.00  0.00    -0.346 N 
ATOM     26  H           0     137.767 130.618 145.328  0.00  0.00     0.161 HD
ATOM     27  H           0     139.188 130.178 146.110  0.00  0.00     0.161 HD
ATOM     28  O           0     140.113 132.446 146.162  0.00  0.00    -0.239 OA
ENDBRANCH  23  24
ENDBRANCH  22  23
ENDBRANCH   6  22
BRANCH  18  29
ATOM     29  O           0     134.600 130.364 142.881  0.00  0.00    -0.362 OA
ATOM     30  H           0     133.972 131.013 142.536  0.00  0.00     0.213 HD
ENDBRANCH  18  29
BRANCH  18  31
ATOM     31  O           0     136.853 130.804 143.373  0.00  0.00    -0.362 OA
ATOM     32  H           0     137.239 131.646 143.092  0.00  0.00     0.213 HD
ENDBRANCH  18  31
TORSDOF 5
ENDMDL
MODEL 5
REMARK VINA RESULT:      -6.8      2.895      4.767
REMARK  5 active torsions:
REMARK  status: ('A' for Active; 'I' for Inactive)
REMARK    1  A    between atoms: C_6  and  C_7 
REMARK    2  A    between atoms: C_7  and  O_8 
REMARK    3  A    between atoms: O_8  and  C_9 
REMARK       I    between atoms: C_9  and  N_10 
REMARK    4  A    between atoms: C_23  and  O_24 
REMARK    5  A    between atoms: C_23  and  O_25 
ROOT
ATOM      1  N           0     139.640 130.604 145.983  0.00  0.00    -0.235 N 
ATOM      2  H           0     140.391 130.758 145.388  0.00  0.00     0.174 HD
ATOM      3  H           0     139.677 129.886 146.634  0.00  0.00     0.174 HD
ATOM      4  C           0     138.584 131.364 145.911  0.00  0.00     0.672 C 
ATOM      5  N           0     138.485 132.404 145.002  0.00  0.00    -0.218 N 
ATOM      6  C           0     137.157 132.789 144.534  0.00  0.00     0.151 C 
ATOM      7  C           0     136.183 133.028 145.671  0.00  0.00     0.180 C 
ATOM      8  N           0     136.463 134.344 146.282  0.00  0.00    -0.216 N 
ATOM      9  C           0     136.319 134.209 147.641  0.00  0.00     0.670 C 
ATOM     10  N           0     136.132 135.205 148.461  0.00  0.00    -0.235 N 
ATOM     11  H           0     136.087 136.112 148.119  0.00  0.00     0.174 HD
ATOM     12  H           0     136.037 135.039 149.412  0.00  0.00     0.174 HD
ATOM     13  C           0     136.324 132.050 146.826  0.00  0.00     0.217 C 
ATOM     14  N           0     136.395 132.895 148.030  0.00  0.00    -0.191 N 
ATOM     15  N           0     137.497 131.182 146.725  0.00  0.00    -0.183 N 
ATOM     16  C           0     137.227 130.055 147.636  0.00  0.00     0.150 C 
ATOM     17  C           0     135.715 129.773 147.460  0.00  0.00     0.093 C 
ATOM     18  C           0     135.118 131.099 146.925  0.00  0.00     0.209 C 
ATOM     19  H           0     139.277 132.865 144.687  0.00  0.00     0.178 HD
ATOM     20  H           0     136.705 135.156 145.810  0.00  0.00     0.178 HD
ATOM     21  H           0     136.478 132.577 148.943  0.00  0.00     0.180 HD
ENDROOT
BRANCH   6  22
ATOM     22  C           0     136.607 131.675 143.640  0.00  0.00     0.208 C 
BRANCH  22  23
ATOM     23  O           0     135.295 132.052 143.149  0.00  0.00    -0.302 OA
BRANCH  23  24
ATOM     24  C           0     135.168 133.067 142.273  0.00  0.00     0.358 C 
ATOM     25  N           0     135.864 133.052 141.119  0.00  0.00    -0.346 N 
ATOM     26  H           0     136.456 132.310 140.919  0.00  0.00     0.161 HD
ATOM     27  H           0     135.773 133.784 140.488  0.00  0.00     0.161 HD
ATOM     28  O           0     134.426 133.996 142.524  0.00  0.00    -0.239 OA
ENDBRANCH  23  24
ENDBRANCH  22  23
ENDBRANCH   6  22
BRANCH  18  29
ATOM     29  O           0     134.147 131.612 147.839  0.00  0.00    -0.362 OA
ATOM     30  H           0     133.923 132.503 147.537  0.00  0.00     0.213 HD
ENDBRANCH  18  29
BRANCH  18  31
ATOM     31  O           0     134.536 130.899 145.636  0.00  0.00    -0.362 OA
ATOM     32  H           0     133.577 130.878 145.762  0.00  0.00     0.213 HD
ENDBRANCH  18  31
TORSDOF 5
ENDMDL
MODEL 6
REMARK VINA RESULT:      -6.8      2.982      4.444
REMARK  5 active torsions:
REMARK  status: ('A' for Active; 'I' for Inactive)
REMARK    1  A    between atoms: C_6  and  C_7 
REMARK    2  A    between atoms: C_7  and  O_8 
REMARK    3  A    between atoms: O_8  and  C_9 
REMARK       I    between atoms: C_9  and  N_10 
REMARK    4  A    between atoms: C_23  and  O_24 
REMARK    5  A    between atoms: C_23  and  O_25 
ROOT
ATOM      1  N           0     136.033 134.631 147.168  0.00  0.00    -0.235 N 
ATOM      2  H           0     135.560 135.338 146.704  0.00  0.00     0.174 HD
ATOM      3  H           0     136.516 134.826 147.986  0.00  0.00     0.174 HD
ATOM      4  C           0     136.016 133.416 146.695  0.00  0.00     0.672 C 
ATOM      5  N           0     135.338 133.085 145.535  0.00  0.00    -0.218 N 
ATOM      6  C           0     135.831 131.964 144.741  0.00  0.00     0.151 C 
ATOM      7  C           0     136.040 130.710 145.567  0.00  0.00     0.180 C 
ATOM      8  N           0     134.731 130.080 145.836  0.00  0.00    -0.216 N 
ATOM      9  C           0     134.751 129.617 147.129  0.00  0.00     0.670 C 
ATOM     10  N           0     133.939 128.710 147.595  0.00  0.00    -0.235 N 
ATOM     11  H           0     133.267 128.318 147.016  0.00  0.00     0.174 HD
ATOM     12  H           0     134.008 128.427 148.520  0.00  0.00     0.174 HD
ATOM     13  C           0     136.613 130.967 146.952  0.00  0.00     0.217 C 
ATOM     14  N           0     135.732 130.227 147.870  0.00  0.00    -0.191 N 
ATOM     15  N           0     136.674 132.384 147.312  0.00  0.00    -0.183 N 
ATOM     16  C           0     137.632 132.461 148.431  0.00  0.00     0.150 C 
ATOM     17  C           0     138.736 131.441 148.061  0.00  0.00     0.093 C 
ATOM     18  C           0     138.056 130.450 147.082  0.00  0.00     0.209 C 
ATOM     19  H           0     134.555 133.586 145.258  0.00  0.00     0.178 HD
ATOM     20  H           0     133.990 130.007 145.213  0.00  0.00     0.178 HD
ATOM     21  H           0     135.830 130.177 148.834  0.00  0.00     0.180 HD
ENDROOT
BRANCH   6  22
ATOM     22  C           0     137.162 132.361 144.100  0.00  0.00     0.208 C 
BRANCH  22  23
ATOM     23  O           0     136.926 133.356 143.070  0.00  0.00    -0.302 OA
BRANCH  23  24
ATOM     24  C           0     137.463 134.586 143.187  0.00  0.00     0.358 C 
ATOM     25  N           0     136.687 135.628 143.547  0.00  0.00    -0.346 N 
ATOM     26  H           0     135.742 135.492 143.722  0.00  0.00     0.161 HD
ATOM     27  H           0     137.073 136.514 143.630  0.00  0.00     0.161 HD
ATOM     28  O           0     138.646 134.756 142.968  0.00  0.00    -0.239 OA
ENDBRANCH  23  24
ENDBRANCH  22  23
ENDBRANCH   6  22
BRANCH  18  29
ATOM     29  O           0     138.070 129.128 147.623  0.00  0.00    -0.362 OA
ATOM     30  H           0     137.798 128.532 146.911  0.00  0.00     0.213 HD
ENDBRANCH  18  29
BRANCH  18  31
ATOM     31  O           0     138.710 130.477 145.811  0.00  0.00    -0.362 OA
ATOM     32  H           0     139.403 129.802 145.839  0.00  0.00     0.213 HD
ENDBRANCH  18  31
TORSDOF 5
ENDMDL
MODEL 7
REMARK VINA RESULT:      -6.5      8.065     10.746
REMARK  5 active torsions:
REMARK  status: ('A' for Active; 'I' for Inactive)
REMARK    1  A    between atoms: C_6  and  C_7 
REMARK    2  A    between atoms: C_7  and  O_8 
REMARK    3  A    between atoms: O_8  and  C_9 
REMARK       I    between atoms: C_9  and  N_10 
REMARK    4  A    between atoms: C_23  and  O_24 
REMARK    5  A    between atoms: C_23  and  O_25 
ROOT
ATOM      1  N           0     133.608 134.581 131.004  0.00  0.00    -0.235 N 
ATOM      2  H           0     133.599 135.245 130.297  0.00  0.00     0.174 HD
ATOM      3  H           0     134.268 133.870 130.993  0.00  0.00     0.174 HD
ATOM      4  C           0     132.737 134.646 131.972  0.00  0.00     0.672 C 
ATOM      5  N           0     131.779 135.643 132.035  0.00  0.00    -0.218 N 
ATOM      6  C           0     130.516 135.347 132.705  0.00  0.00     0.151 C 
ATOM      7  C           0     130.712 134.759 134.089  0.00  0.00     0.180 C 
ATOM      8  N           0     131.079 135.839 135.028  0.00  0.00    -0.216 N 
ATOM      9  C           0     132.038 135.342 135.876  0.00  0.00     0.670 C 
ATOM     10  N           0     132.335 135.864 137.034  0.00  0.00    -0.235 N 
ATOM     11  H           0     131.864 136.654 137.344  0.00  0.00     0.174 HD
ATOM     12  H           0     133.024 135.462 137.584  0.00  0.00     0.174 HD
ATOM     13  C           0     131.870 133.779 134.188  0.00  0.00     0.217 C 
ATOM     14  N           0     132.647 134.228 135.355  0.00  0.00    -0.191 N 
ATOM     15  N           0     132.706 133.728 132.989  0.00  0.00    -0.183 N 
ATOM     16  C           0     133.453 132.461 133.087  0.00  0.00     0.150 C 
ATOM     17  C           0     132.431 131.459 133.678  0.00  0.00     0.093 C 
ATOM     18  C           0     131.384 132.336 134.409  0.00  0.00     0.209 C 
ATOM     19  H           0     131.943 136.515 131.645  0.00  0.00     0.178 HD
ATOM     20  H           0     130.709 136.736 135.044  0.00  0.00     0.178 HD
ATOM     21  H           0     133.451 133.808 135.698  0.00  0.00     0.180 HD
ENDROOT
BRANCH   6  22
ATOM     22  C           0     129.727 134.351 131.853  0.00  0.00     0.208 C 
BRANCH  22  23
ATOM     23  O           0     128.393 134.192 132.404  0.00  0.00    -0.302 OA
BRANCH  23  24
ATOM     24  C           0     127.541 133.304 131.858  0.00  0.00     0.358 C 
ATOM     25  N           0     128.016 132.192 131.263  0.00  0.00    -0.346 N 
ATOM     26  H           0     128.972 132.031 131.227  0.00  0.00     0.161 HD
ATOM     27  H           0     127.402 131.552 130.869  0.00  0.00     0.161 HD
ATOM     28  O           0     126.343 133.505 131.904  0.00  0.00    -0.239 OA
ENDBRANCH  23  24
ENDBRANCH  22  23
ENDBRANCH   6  22
BRANCH  18  29
ATOM     29  O           0     131.357 132.021 135.803  0.00  0.00    -0.362 OA
ATOM     30  H           0     132.278 131.951 136.091  0.00  0.00     0.213 HD
ENDBRANCH  18  29
BRANCH  18  31
ATOM     31  O           0     130.090 132.153 133.831  0.00  0.00    -0.362 OA
ATOM     32  H           0     129.831 133.004 133.451  0.00  0.00     0.213 HD
ENDBRANCH  18  31
TORSDOF 5
ENDMDL
MODEL 8
REMARK VINA RESULT:      -6.4      6.011     10.495
REMARK  5 active torsions:
REMARK  status: ('A' for Active; 'I' for Inactive)
REMARK    1  A    between atoms: C_6  and  C_7 
REMARK    2  A    between atoms: C_7  and  O_8 
REMARK    3  A    between atoms: O_8  and  C_9 
REMARK       I    between atoms: C_9  and  N_10 
REMARK    4  A    between atoms: C_23  and  O_24 
REMARK    5  A    between atoms: C_23  and  O_25 
ROOT
ATOM      1  N           0     134.776 134.180 133.003  0.00  0.00    -0.235 N 
ATOM      2  H           0     135.365 133.521 133.400  0.00  0.00     0.174 HD
ATOM      3  H           0     135.070 134.693 132.233  0.00  0.00     0.174 HD
ATOM      4  C           0     133.586 134.376 133.498  0.00  0.00     0.672 C 
ATOM      5  N           0     133.118 133.666 134.591  0.00  0.00    -0.218 N 
ATOM      6  C           0     132.129 134.303 135.457  0.00  0.00     0.151 C 
ATOM      7  C           0     130.950 134.861 134.685  0.00  0.00     0.180 C 
ATOM      8  N           0     130.052 133.752 134.299  0.00  0.00    -0.216 N 
ATOM      9  C           0     129.603 134.006 133.026  0.00  0.00     0.670 C 
ATOM     10  N           0     128.543 133.461 132.500  0.00  0.00    -0.235 N 
ATOM     11  H           0     128.015 132.831 133.017  0.00  0.00     0.174 HD
ATOM     12  H           0     128.281 133.685 131.594  0.00  0.00     0.174 HD
ATOM     13  C           0     131.324 135.507 133.360  0.00  0.00     0.217 C 
ATOM     14  N           0     130.410 134.905 132.374  0.00  0.00    -0.191 N 
ATOM     15  N           0     132.720 135.300 132.975  0.00  0.00    -0.183 N 
ATOM     16  C           0     133.001 136.330 131.959  0.00  0.00     0.150 C 
ATOM     17  C           0     132.243 137.582 132.462  0.00  0.00     0.093 C 
ATOM     18  C           0     131.129 137.033 133.389  0.00  0.00     0.209 C 
ATOM     19  H           0     133.437 132.770 134.776  0.00  0.00     0.178 HD
ATOM     20  H           0     129.821 132.984 134.845  0.00  0.00     0.178 HD
ATOM     21  H           0     130.382 135.111 131.427  0.00  0.00     0.180 HD
ENDROOT
BRANCH   6  22
ATOM     22  C           0     132.804 135.444 136.220  0.00  0.00     0.208 C 
BRANCH  22  23
ATOM     23  O           0     133.631 134.896 137.279  0.00  0.00    -0.302 OA
BRANCH  23  24
ATOM     24  C           0     133.205 134.935 138.556  0.00  0.00     0.358 C 
ATOM     25  N           0     133.532 135.979 139.344  0.00  0.00    -0.346 N 
ATOM     26  H           0     134.075 136.702 138.992  0.00  0.00     0.161 HD
ATOM     27  H           0     133.225 136.007 140.264  0.00  0.00     0.161 HD
ATOM     28  O           0     132.525 134.030 138.997  0.00  0.00    -0.239 OA
ENDBRANCH  23  24
ENDBRANCH  22  23
ENDBRANCH   6  22
BRANCH  18  29
ATOM     29  O           0     129.841 137.386 132.883  0.00  0.00    -0.362 OA
ATOM     30  H           0     129.988 137.872 132.059  0.00  0.00     0.213 HD
ENDBRANCH  18  29
BRANCH  18  31
ATOM     31  O           0     131.297 137.530 134.718  0.00  0.00    -0.362 OA
ATOM     32  H           0     132.038 137.044 135.106  0.00  0.00     0.213 HD
ENDBRANCH  18  31
TORSDOF 5
ENDMDL
MODEL 9
REMARK VINA RESULT:      -6.4      4.925      7.105
REMARK  5 active torsions:
REMARK  status: ('A' for Active; 'I' for Inactive)
REMARK    1  A    between atoms: C_6  and  C_7 
REMARK    2  A    between atoms: C_7  and  O_8 
REMARK    3  A    between atoms: O_8  and  C_9 
REMARK       I    between atoms: C_9  and  N_10 
REMARK    4  A    between atoms: C_23  and  O_24 
REMARK    5  A    between atoms: C_23  and  O_25 
ROOT
ATOM      1  N           0     134.792 132.384 149.998  0.00  0.00    -0.235 N 
ATOM      2  H           0     134.487 132.182 150.896  0.00  0.00     0.174 HD
ATOM      3  H           0     134.753 133.295 149.666  0.00  0.00     0.174 HD
ATOM      4  C           0     135.257 131.434 149.237  0.00  0.00     0.672 C 
ATOM      5  N           0     135.338 130.120 149.665  0.00  0.00    -0.218 N 
ATOM      6  C           0     135.253 129.060 148.664  0.00  0.00     0.151 C 
ATOM      7  C           0     136.217 129.267 147.512  0.00  0.00     0.180 C 
ATOM      8  N           0     137.580 128.893 147.944  0.00  0.00    -0.216 N 
ATOM      9  C           0     138.451 129.806 147.401  0.00  0.00     0.670 C 
ATOM     10  N           0     139.731 129.603 147.261  0.00  0.00    -0.235 N 
ATOM     11  H           0     140.123 128.763 147.549  0.00  0.00     0.174 HD
ATOM     12  H           0     140.291 130.291 146.868  0.00  0.00     0.174 HD
ATOM     13  C           0     136.356 130.715 147.071  0.00  0.00     0.217 C 
ATOM     14  N           0     137.808 130.958 147.024  0.00  0.00    -0.191 N 
ATOM     15  N           0     135.694 131.669 147.959  0.00  0.00    -0.183 N 
ATOM     16  C           0     135.548 132.904 147.166  0.00  0.00     0.150 C 
ATOM     17  C           0     135.202 132.406 145.742  0.00  0.00     0.093 C 
ATOM     18  C           0     135.742 130.954 145.681  0.00  0.00     0.209 C 
ATOM     19  H           0     135.449 129.909 150.605  0.00  0.00     0.178 HD
ATOM     20  H           0     137.817 128.141 148.509  0.00  0.00     0.178 HD
ATOM     21  H           0     138.236 131.789 146.767  0.00  0.00     0.180 HD
ENDROOT
BRANCH   6  22
ATOM     22  C           0     133.827 129.014 148.113  0.00  0.00     0.208 C 
BRANCH  22  23
ATOM     23  O           0     133.661 127.826 147.297  0.00  0.00    -0.302 OA
BRANCH  23  24
ATOM     24  C           0     132.480 127.178 147.283  0.00  0.00     0.358 C 
ATOM     25  N           0     132.435 125.867 146.972  0.00  0.00    -0.346 N 
ATOM     26  H           0     133.252 125.390 146.759  0.00  0.00     0.161 HD
ATOM     27  H           0     131.584 125.400 146.962  0.00  0.00     0.161 HD
ATOM     28  O           0     131.456 127.775 147.551  0.00  0.00    -0.239 OA
ENDBRANCH  23  24
ENDBRANCH  22  23
ENDBRANCH   6  22
BRANCH  18  29
ATOM     29  O           0     136.737 130.836 144.663  0.00  0.00    -0.362 OA
ATOM     30  H           0     136.272 130.845 143.815  0.00  0.00     0.213 HD
ENDBRANCH  18  29
BRANCH  18  31
ATOM     31  O           0     134.673 130.035 145.445  0.00  0.00    -0.362 OA
ATOM     32  H           0     135.080 129.179 145.250  0.00  0.00     0.213 HD
ENDBRANCH  18  31
TORSDOF 5
ENDMDL
