# created with PyMOL 2.3.4
@<TRIPOS>MOLECULE
ligand_out_0001
32 34 1                 
SMALL
USER_CHARGES
@<TRIPOS>ATOM
1	   N	135.053	136.792	143.154	N.3	1	UNK0	-0.235	
2	   N	133.791	134.810	143.024	N.3	1	UNK0	-0.218	
3	   N	134.088	132.207	144.644	N.3	1	UNK0	-0.216	
4	   N	134.857	131.677	146.818	N.3	1	UNK0	-0.235	
5	   N	136.096	133.025	145.322	N.3	1	UNK0	-0.191	
6	   N	136.050	134.720	143.597	N.3	1	UNK0	-0.183	
7	   N	133.543	136.030	139.878	N.pl3	1	UNK0	-0.346	
8	   C	134.971	135.495	143.257	C.3	1	UNK0	0.672	
9	   C	133.874	133.433	142.544	C.3	1	UNK0	0.151	
10	   C	134.788	132.573	143.395	C.3	1	UNK0	0.180	
11	   C	135.004	132.267	145.665	C.3	1	UNK0	0.670	
12	   C	136.043	133.284	143.873	C.3	1	UNK0	0.217	
13	   C	137.461	135.132	143.706	C.3	1	UNK0	0.150	
14	   C	138.252	133.957	143.083	C.3	1	UNK0	0.093	
15	   C	137.310	132.731	143.197	C.3	1	UNK0	0.209	
16	   C	134.399	133.442	141.108	C.2	1	UNK0	0.208	
17	   C	133.384	134.792	139.369	C.2	1	UNK0	0.358	
18	   O	133.309	133.730	140.195	O.2	1	UNK0	-0.302	
19	   O	133.309	134.633	138.167	O.co2	1	UNK0	-0.239	
20	   O	137.910	131.717	144.005	O.2	1	UNK0	-0.362	
21	   O	136.998	132.220	141.900	O.2	1	UNK0	-0.362	
22	   H	134.271	137.309	142.907	 H	1	UNK0	0.174	
23	   H	135.896	137.240	143.328	 H	1	UNK0	0.174	
24	   H	134.059	131.155	146.996	 H	1	UNK0	0.174	
25	   H	135.544	131.760	147.497	 H	1	UNK0	0.174	
26	   H	132.933	135.233	143.176	 H	1	UNK0	0.178	
27	   H	133.152	131.967	144.728	 H	1	UNK0	0.178	
28	   H	136.786	133.335	145.929	 H	1	UNK0	0.180	
29	   H	133.603	136.157	140.838	 H	1	UNK0	0.161	
30	   H	133.596	136.795	139.283	 H	1	UNK0	0.161	
31	   H	137.810	131.997	144.925	 H	1	UNK0	0.213	
32	   H	136.970	132.978	141.300	 H	1	UNK0	0.213	
@<TRIPOS>BOND
1 1 8 1
2 1 22 1
3 1 23 1
4 2 9 1
5 2 26 1
6 3 11 1
7 3 27 1
8 4 24 1
9 4 25 1
10 5 28 1
11 6 13 1
12 7 29 1
13 7 30 1
14 2 8 1
15 6 8 1
16 9 10 1
17 9 16 1
18 3 10 1
19 10 12 1
20 4 11 1
21 5 11 1
22 5 12 1
23 6 12 1
24 12 15 1
25 13 14 1
26 14 15 1
27 15 20 2
28 15 21 2
29 16 18 2
30 7 17 1
31 17 19 2
32 17 18 2
33 20 31 1
34 21 32 1
@<TRIPOS>SUBSTRUCTURE
1	UNK0	1	GROUP	1 ****	UNK
