# created with PyMOL 2.3.4
@<TRIPOS>MOLECULE
ligand_out_0001
32 35 1                 
SMALL
USER_CHARGES
@<TRIPOS>ATOM
1	   N	133.400	134.861	140.139	N.3	1	UNK0	-0.235	
2	   N	133.207	132.985	141.540	N.pl3	1	UNK0	-0.200	
3	   N	134.281	134.940	142.318	N.3	1	UNK0	-0.211	
4	   C	133.619	134.284	141.287	C.3	1	UNK0	0.670	
5	   C	134.133	132.098	142.265	C.2	1	UNK0	0.244	
6	   C	134.630	132.835	143.512	C.3	1	UNK0	0.101	
7	   C	135.255	134.168	143.081	C.3	1	UNK0	0.119	
8	   C	136.478	133.855	142.207	C.2	1	UNK0	0.243	
9	   C	135.682	132.001	144.240	C.2	1	UNK0	0.177	
10	   C	137.428	133.018	143.070	C.3	1	UNK0	0.311	
11	   C	136.122	132.759	145.501	C.3	1	UNK0	0.134	
12	   C	136.773	134.077	145.043	C.2	1	UNK0	0.198	
13	   C	135.736	134.927	144.318	C.2	1	UNK0	0.182	
14	   C	137.128	131.917	146.288	C.2	1	UNK0	0.207	
15	   O	136.823	131.783	143.417	O.2	1	UNK0	-0.322	
16	   O	137.868	133.772	144.185	O.2	1	UNK0	-0.319	
17	   O	134.984	133.043	146.317	O.2	1	UNK0	-0.382	
18	   O	137.021	130.550	145.887	O.2	1	UNK0	-0.398	
19	   O	136.323	136.167	143.921	O.2	1	UNK0	-0.390	
20	   O	133.451	130.903	142.652	O.2	1	UNK0	-0.376	
21	   O	138.586	132.727	142.284	O.2	1	UNK0	-0.341	
22	   O	136.077	133.113	141.053	O.2	1	UNK0	-0.385	
23	   H	132.938	134.378	139.435	 H	1	UNK0	0.174	
24	   H	133.696	135.772	139.989	 H	1	UNK0	0.174	
25	   H	132.336	132.671	141.250	 H	1	UNK0	0.180	
26	   H	134.098	135.870	142.523	 H	1	UNK0	0.178	
27	   H	134.556	132.197	146.505	 H	1	UNK0	0.210	
28	   H	136.078	130.361	145.787	 H	1	UNK0	0.209	
29	   H	135.693	136.862	144.155	 H	1	UNK0	0.210	
30	   H	132.633	130.868	142.135	 H	1	UNK0	0.212	
31	   H	139.340	133.119	142.743	 H	1	UNK0	0.215	
32	   H	136.311	132.190	141.220	 H	1	UNK0	0.210	
@<TRIPOS>BOND
1 1 4 1
2 1 23 1
3 1 24 1
4 2 5 1
5 2 25 1
6 3 26 1
7 2 4 1
8 3 4 1
9 5 6 1
10 5 20 2
11 6 7 1
12 6 9 1
13 3 7 1
14 7 8 1
15 7 13 1
16 8 10 1
17 8 22 2
18 9 11 1
19 9 15 2
20 10 16 2
21 10 21 2
22 11 12 1
23 11 14 1
24 11 17 2
25 12 13 1
26 13 19 2
27 14 18 2
28 10 15 2
29 12 16 2
30 17 27 1
31 18 28 1
32 19 29 1
33 20 30 1
34 21 31 1
35 22 32 1
@<TRIPOS>SUBSTRUCTURE
1	UNK0	1	GROUP	1 ****	UNK
