MODEL 1
REMARK VINA RESULT:      -7.3      0.000      0.000
REMARK  7 active torsions:
REMARK  status: ('A' for Active; 'I' for Inactive)
REMARK    1  A    between atoms: C_6  and  O_7 
REMARK    2  A    between atoms: C_10  and  O_11 
REMARK    3  A    between atoms: C_15  and  O_16 
REMARK    4  A    between atoms: C_18  and  O_19 
REMARK    5  A    between atoms: C_18  and  C_20 
REMARK    6  A    between atoms: C_20  and  O_21 
REMARK    7  A    between atoms: C_23  and  O_24 
ROOT
ATOM      1  N           0     133.400 134.861 140.139  0.00  0.00    -0.235 N 
ATOM      2  H           0     132.938 134.378 139.435  0.00  0.00     0.174 HD
ATOM      3  H           0     133.696 135.772 139.989  0.00  0.00     0.174 HD
ATOM      4  C           0     133.619 134.284 141.287  0.00  0.00     0.670 C 
ATOM      5  N           0     133.207 132.985 141.540  0.00  0.00    -0.200 N 
ATOM      6  C           0     134.133 132.098 142.265  0.00  0.00     0.244 C 
ATOM      7  C           0     134.630 132.835 143.512  0.00  0.00     0.101 C 
ATOM      8  C           0     135.255 134.168 143.081  0.00  0.00     0.119 C 
ATOM      9  C           0     136.478 133.855 142.207  0.00  0.00     0.243 C 
ATOM     10  N           0     134.281 134.940 142.318  0.00  0.00    -0.211 N 
ATOM     11  C           0     135.682 132.001 144.240  0.00  0.00     0.177 C 
ATOM     12  O           0     136.823 131.783 143.417  0.00  0.00    -0.322 OA
ATOM     13  C           0     137.428 133.018 143.070  0.00  0.00     0.311 C 
ATOM     14  O           0     137.868 133.772 144.185  0.00  0.00    -0.319 OA
ATOM     15  C           0     136.122 132.759 145.501  0.00  0.00     0.134 C 
ATOM     16  C           0     136.773 134.077 145.043  0.00  0.00     0.198 C 
ATOM     17  C           0     135.736 134.927 144.318  0.00  0.00     0.182 C 
ATOM     18  H           0     132.336 132.671 141.250  0.00  0.00     0.180 HD
ATOM     19  H           0     134.098 135.870 142.523  0.00  0.00     0.178 HD
ENDROOT
BRANCH  15  20
ATOM     20  O           0     134.984 133.043 146.317  0.00  0.00    -0.382 OA
ATOM     21  H           0     134.556 132.197 146.505  0.00  0.00     0.210 HD
ENDBRANCH  15  20
BRANCH  15  22
ATOM     22  C           0     137.128 131.917 146.288  0.00  0.00     0.207 C 
BRANCH  22  23
ATOM     23  O           0     137.021 130.550 145.887  0.00  0.00    -0.398 OA
ATOM     24  H           0     136.078 130.361 145.787  0.00  0.00     0.209 HD
ENDBRANCH  22  23
ENDBRANCH  15  22
BRANCH  17  25
ATOM     25  O           0     136.323 136.167 143.921  0.00  0.00    -0.390 OA
ATOM     26  H           0     135.693 136.862 144.155  0.00  0.00     0.210 HD
ENDBRANCH  17  25
BRANCH   6  27
ATOM     27  O           0     133.451 130.903 142.652  0.00  0.00    -0.376 OA
ATOM     28  H           0     132.633 130.868 142.135  0.00  0.00     0.212 HD
ENDBRANCH   6  27
BRANCH  13  29
ATOM     29  O           0     138.586 132.727 142.284  0.00  0.00    -0.341 OA
ATOM     30  H           0     139.340 133.119 142.743  0.00  0.00     0.215 HD
ENDBRANCH  13  29
BRANCH   9  31
ATOM     31  O           0     136.077 133.113 141.053  0.00  0.00    -0.385 OA
ATOM     32  H           0     136.311 132.190 141.220  0.00  0.00     0.210 HD
ENDBRANCH   9  31
TORSDOF 7
ENDMDL
MODEL 2
REMARK VINA RESULT:      -7.0      1.532      2.021
REMARK  7 active torsions:
REMARK  status: ('A' for Active; 'I' for Inactive)
REMARK    1  A    between atoms: C_6  and  O_7 
REMARK    2  A    between atoms: C_10  and  O_11 
REMARK    3  A    between atoms: C_15  and  O_16 
REMARK    4  A    between atoms: C_18  and  O_19 
REMARK    5  A    between atoms: C_18  and  C_20 
REMARK    6  A    between atoms: C_20  and  O_21 
REMARK    7  A    between atoms: C_23  and  O_24 
ROOT
ATOM      1  N           0     134.931 137.102 142.752  0.00  0.00    -0.235 N 
ATOM      2  H           0     134.704 137.349 141.842  0.00  0.00     0.174 HD
ATOM      3  H           0     135.315 137.760 143.352  0.00  0.00     0.174 HD
ATOM      4  C           0     134.715 135.886 143.170  0.00  0.00     0.670 C 
ATOM      5  N           0     134.164 134.920 142.344  0.00  0.00    -0.200 N 
ATOM      6  C           0     134.736 133.563 142.394  0.00  0.00     0.244 C 
ATOM      7  C           0     134.830 133.133 143.861  0.00  0.00     0.101 C 
ATOM      8  C           0     135.644 134.180 144.632  0.00  0.00     0.119 C 
ATOM      9  C           0     137.067 134.188 144.057  0.00  0.00     0.243 C 
ATOM     10  N           0     135.032 135.493 144.465  0.00  0.00    -0.211 N 
ATOM     11  C           0     135.523 131.776 143.975  0.00  0.00     0.177 C 
ATOM     12  O           0     136.858 131.841 143.486  0.00  0.00    -0.322 OA
ATOM     13  C           0     137.620 132.769 144.240  0.00  0.00     0.311 C 
ATOM     14  O           0     137.705 132.453 145.618  0.00  0.00    -0.319 OA
ATOM     15  C           0     135.560 131.368 145.455  0.00  0.00     0.134 C 
ATOM     16  C           0     136.407 132.415 146.202  0.00  0.00     0.198 C 
ATOM     17  C           0     135.727 133.776 146.103  0.00  0.00     0.182 C 
ATOM     18  H           0     133.423 135.129 141.754  0.00  0.00     0.180 HD
ATOM     19  H           0     134.848 136.067 145.225  0.00  0.00     0.178 HD
ENDROOT
BRANCH  15  20
ATOM     20  O           0     134.234 131.354 145.986  0.00  0.00    -0.382 OA
ATOM     21  H           0     134.053 132.247 146.311  0.00  0.00     0.210 HD
ENDBRANCH  15  20
BRANCH  15  22
ATOM     22  C           0     136.189 129.980 145.594  0.00  0.00     0.207 C 
BRANCH  22  23
ATOM     23  O           0     137.175 130.008 146.628  0.00  0.00    -0.398 OA
ATOM     24  H           0     137.606 130.872 146.581  0.00  0.00     0.209 HD
ENDBRANCH  22  23
ENDBRANCH  15  22
BRANCH  17  25
ATOM     25  O           0     136.488 134.746 146.824  0.00  0.00    -0.390 OA
ATOM     26  H           0     137.118 134.255 147.371  0.00  0.00     0.210 HD
ENDBRANCH  17  25
BRANCH   6  27
ATOM     27  O           0     133.892 132.658 141.680  0.00  0.00    -0.376 OA
ATOM     28  H           0     133.115 133.163 141.398  0.00  0.00     0.212 HD
ENDBRANCH   6  27
BRANCH  13  29
ATOM     29  O           0     138.954 132.754 143.729  0.00  0.00    -0.341 OA
ATOM     30  H           0     139.190 131.827 143.593  0.00  0.00     0.215 HD
ENDBRANCH  13  29
BRANCH   9  31
ATOM     31  O           0     137.033 134.526 142.669  0.00  0.00    -0.385 OA
ATOM     32  H           0     137.600 135.301 142.556  0.00  0.00     0.210 HD
ENDBRANCH   9  31
TORSDOF 7
ENDMDL
MODEL 3
REMARK VINA RESULT:      -6.6      5.664      7.625
REMARK  7 active torsions:
REMARK  status: ('A' for Active; 'I' for Inactive)
REMARK    1  A    between atoms: C_6  and  O_7 
REMARK    2  A    between atoms: C_10  and  O_11 
REMARK    3  A    between atoms: C_15  and  O_16 
REMARK    4  A    between atoms: C_18  and  O_19 
REMARK    5  A    between atoms: C_18  and  C_20 
REMARK    6  A    between atoms: C_20  and  O_21 
REMARK    7  A    between atoms: C_23  and  O_24 
ROOT
ATOM      1  N           0     137.419 128.610 147.365  0.00  0.00    -0.235 N 
ATOM      2  H           0     137.953 128.635 146.556  0.00  0.00     0.174 HD
ATOM      3  H           0     137.698 128.061 148.114  0.00  0.00     0.174 HD
ATOM      4  C           0     136.329 129.319 147.448  0.00  0.00     0.670 C 
ATOM      5  N           0     135.900 130.120 146.401  0.00  0.00    -0.200 N 
ATOM      6  C           0     134.462 130.126 146.083  0.00  0.00     0.244 C 
ATOM      7  C           0     133.681 130.348 147.382  0.00  0.00     0.101 C 
ATOM      8  C           0     134.089 129.270 148.394  0.00  0.00     0.119 C 
ATOM      9  C           0     133.670 127.907 147.826  0.00  0.00     0.243 C 
ATOM     10  N           0     135.534 129.306 148.589  0.00  0.00    -0.211 N 
ATOM     11  C           0     132.178 130.249 147.124  0.00  0.00     0.177 C 
ATOM     12  O           0     131.823 128.953 146.655  0.00  0.00    -0.322 OA
ATOM     13  C           0     132.153 127.968 147.621  0.00  0.00     0.311 C 
ATOM     14  O           0     131.498 128.144 148.864  0.00  0.00    -0.319 OA
ATOM     15  C           0     131.437 130.517 148.442  0.00  0.00     0.134 C 
ATOM     16  C           0     131.838 129.406 149.431  0.00  0.00     0.198 C 
ATOM     17  C           0     133.336 129.492 149.705  0.00  0.00     0.182 C 
ATOM     18  H           0     136.526 130.661 145.896  0.00  0.00     0.180 HD
ATOM     19  H           0     135.926 129.325 149.475  0.00  0.00     0.178 HD
ENDROOT
BRANCH  15  20
ATOM     20  O           0     131.823 131.789 148.966  0.00  0.00    -0.382 OA
ATOM     21  H           0     131.389 132.459 148.420  0.00  0.00     0.210 HD
ENDBRANCH  15  20
BRANCH  15  22
ATOM     22  C           0     129.926 130.490 148.201  0.00  0.00     0.207 C 
BRANCH  22  23
ATOM     23  O           0     129.644 129.719 147.033  0.00  0.00    -0.398 OA
ATOM     24  H           0     128.734 129.923 146.776  0.00  0.00     0.209 HD
ENDBRANCH  22  23
ENDBRANCH  15  22
BRANCH  17  25
ATOM     25  O           0     133.709 128.488 150.649  0.00  0.00    -0.390 OA
ATOM     26  H           0     132.919 128.288 151.171  0.00  0.00     0.210 HD
ENDBRANCH  17  25
BRANCH   6  27
ATOM     27  O           0     134.176 131.182 145.163  0.00  0.00    -0.376 OA
ATOM     28  H           0     134.227 132.009 145.663  0.00  0.00     0.212 HD
ENDBRANCH   6  27
BRANCH  13  29
ATOM     29  O           0     131.733 126.701 147.109  0.00  0.00    -0.341 OA
ATOM     30  H           0     132.512 126.289 146.711  0.00  0.00     0.215 HD
ENDBRANCH  13  29
BRANCH   9  31
ATOM     31  O           0     134.327 127.673 146.578  0.00  0.00    -0.385 OA
ATOM     32  H           0     134.035 126.806 146.266  0.00  0.00     0.210 HD
ENDBRANCH   9  31
TORSDOF 7
ENDMDL
MODEL 4
REMARK VINA RESULT:      -6.6      2.059      3.994
REMARK  7 active torsions:
REMARK  status: ('A' for Active; 'I' for Inactive)
REMARK    1  A    between atoms: C_6  and  O_7 
REMARK    2  A    between atoms: C_10  and  O_11 
REMARK    3  A    between atoms: C_15  and  O_16 
REMARK    4  A    between atoms: C_18  and  O_19 
REMARK    5  A    between atoms: C_18  and  C_20 
REMARK    6  A    between atoms: C_20  and  O_21 
REMARK    7  A    between atoms: C_23  and  O_24 
ROOT
ATOM      1  N           0     135.605 133.562 141.471  0.00  0.00    -0.235 N 
ATOM      2  H           0     136.129 134.081 140.840  0.00  0.00     0.174 HD
ATOM      3  H           0     134.640 133.526 141.386  0.00  0.00     0.174 HD
ATOM      4  C           0     136.200 132.909 142.429  0.00  0.00     0.670 C 
ATOM      5  N           0     137.578 132.932 142.579  0.00  0.00    -0.200 N 
ATOM      6  C           0     138.120 133.060 143.943  0.00  0.00     0.244 C 
ATOM      7  C           0     137.425 132.028 144.837  0.00  0.00     0.101 C 
ATOM      8  C           0     135.908 132.240 144.748  0.00  0.00     0.119 C 
ATOM      9  C           0     135.592 133.632 145.312  0.00  0.00     0.243 C 
ATOM     10  N           0     135.485 132.159 143.355  0.00  0.00    -0.211 N 
ATOM     11  C           0     137.869 132.195 146.289  0.00  0.00     0.177 C 
ATOM     12  O           0     137.506 133.475 146.792  0.00  0.00    -0.322 OA
ATOM     13  C           0     136.098 133.641 146.759  0.00  0.00     0.311 C 
ATOM     14  O           0     135.392 132.686 147.530  0.00  0.00    -0.319 OA
ATOM     15  C           0     137.180 131.118 147.139  0.00  0.00     0.134 C 
ATOM     16  C           0     135.662 131.369 147.059  0.00  0.00     0.198 C 
ATOM     17  C           0     135.199 131.202 145.617  0.00  0.00     0.182 C 
ATOM     18  H           0     138.166 132.865 141.812  0.00  0.00     0.180 HD
ATOM     19  H           0     134.739 131.602 143.083  0.00  0.00     0.178 HD
ENDROOT
BRANCH  15  20
ATOM     20  O           0     137.480 129.822 146.617  0.00  0.00    -0.382 OA
ATOM     21  H           0     137.241 129.835 145.680  0.00  0.00     0.210 HD
ENDBRANCH  15  20
BRANCH  15  22
ATOM     22  C           0     137.658 131.217 148.589  0.00  0.00     0.207 C 
BRANCH  22  23
ATOM     23  O           0     138.957 131.810 148.622  0.00  0.00    -0.398 OA
ATOM     24  H           0     139.232 131.829 149.549  0.00  0.00     0.209 HD
ENDBRANCH  22  23
ENDBRANCH  15  22
BRANCH  17  25
ATOM     25  O           0     133.786 131.399 145.542  0.00  0.00    -0.390 OA
ATOM     26  H           0     133.543 131.967 146.286  0.00  0.00     0.210 HD
ENDBRANCH  17  25
BRANCH   6  27
ATOM     27  O           0     139.527 132.812 143.927  0.00  0.00    -0.376 OA
ATOM     28  H           0     139.646 131.889 143.661  0.00  0.00     0.212 HD
ENDBRANCH   6  27
BRANCH  13  29
ATOM     29  O           0     135.800 134.924 147.315  0.00  0.00    -0.341 OA
ATOM     30  H           0     136.572 135.483 147.157  0.00  0.00     0.215 HD
ENDBRANCH  13  29
BRANCH   9  31
ATOM     31  O           0     136.267 134.634 144.548  0.00  0.00    -0.385 OA
ATOM     32  H           0     137.110 134.253 144.269  0.00  0.00     0.210 HD
ENDBRANCH   9  31
TORSDOF 7
ENDMDL
MODEL 5
REMARK VINA RESULT:      -6.5      5.527      7.555
REMARK  7 active torsions:
REMARK  status: ('A' for Active; 'I' for Inactive)
REMARK    1  A    between atoms: C_6  and  O_7 
REMARK    2  A    between atoms: C_10  and  O_11 
REMARK    3  A    between atoms: C_15  and  O_16 
REMARK    4  A    between atoms: C_18  and  O_19 
REMARK    5  A    between atoms: C_18  and  C_20 
REMARK    6  A    between atoms: C_20  and  O_21 
REMARK    7  A    between atoms: C_23  and  O_24 
ROOT
ATOM      1  N           0     135.791 130.558 144.819  0.00  0.00    -0.235 N 
ATOM      2  H           0     136.129 131.421 144.532  0.00  0.00     0.174 HD
ATOM      3  H           0     135.704 129.834 144.179  0.00  0.00     0.174 HD
ATOM      4  C           0     135.457 130.371 146.065  0.00  0.00     0.670 C 
ATOM      5  N           0     135.571 131.380 147.008  0.00  0.00    -0.200 N 
ATOM      6  C           0     134.476 131.541 147.980  0.00  0.00     0.244 C 
ATOM      7  C           0     134.163 130.170 148.586  0.00  0.00     0.101 C 
ATOM      8  C           0     133.847 129.188 147.450  0.00  0.00     0.119 C 
ATOM      9  C           0     132.580 129.683 146.738  0.00  0.00     0.243 C 
ATOM     10  N           0     134.963 129.151 146.513  0.00  0.00    -0.211 N 
ATOM     11  C           0     132.955 130.262 149.518  0.00  0.00     0.177 C 
ATOM     12  O           0     131.790 130.666 148.808  0.00  0.00    -0.322 OA
ATOM     13  C           0     131.472 129.724 147.797  0.00  0.00     0.311 C 
ATOM     14  O           0     131.218 128.421 148.289  0.00  0.00    -0.319 OA
ATOM     15  C           0     132.704 128.877 150.131  0.00  0.00     0.134 C 
ATOM     16  C           0     132.359 127.917 148.977  0.00  0.00     0.198 C 
ATOM     17  C           0     133.555 127.808 148.038  0.00  0.00     0.182 C 
ATOM     18  H           0     136.348 131.960 147.029  0.00  0.00     0.180 HD
ATOM     19  H           0     135.350 128.313 146.217  0.00  0.00     0.178 HD
ENDROOT
BRANCH  15  20
ATOM     20  O           0     133.881 128.421 150.799  0.00  0.00    -0.382 OA
ATOM     21  H           0     133.647 128.301 151.730  0.00  0.00     0.210 HD
ENDBRANCH  15  20
BRANCH  15  22
ATOM     22  C           0     131.540 128.953 151.122  0.00  0.00     0.207 C 
BRANCH  22  23
ATOM     23  O           0     130.827 127.714 151.113  0.00  0.00    -0.398 OA
ATOM     24  H           0     129.921 127.912 151.388  0.00  0.00     0.209 HD
ENDBRANCH  22  23
ENDBRANCH  15  22
BRANCH  17  25
ATOM     25  O           0     133.255 126.892 146.984  0.00  0.00    -0.390 OA
ATOM     26  H           0     134.096 126.664 146.565  0.00  0.00     0.210 HD
ENDBRANCH  17  25
BRANCH   6  27
ATOM     27  O           0     134.877 132.444 149.013  0.00  0.00    -0.376 OA
ATOM     28  H           0     134.904 133.327 148.617  0.00  0.00     0.212 HD
ENDBRANCH   6  27
BRANCH  13  29
ATOM     29  O           0     130.274 130.165 147.154  0.00  0.00    -0.341 OA
ATOM     30  H           0     129.984 129.444 146.580  0.00  0.00     0.215 HD
ENDBRANCH  13  29
BRANCH   9  31
ATOM     31  O           0     132.798 130.990 146.202  0.00  0.00    -0.385 OA
ATOM     32  H           0     132.120 131.133 145.528  0.00  0.00     0.210 HD
ENDBRANCH   9  31
TORSDOF 7
ENDMDL
MODEL 6
REMARK VINA RESULT:      -6.4      2.914      4.776
REMARK  7 active torsions:
REMARK  status: ('A' for Active; 'I' for Inactive)
REMARK    1  A    between atoms: C_6  and  O_7 
REMARK    2  A    between atoms: C_10  and  O_11 
REMARK    3  A    between atoms: C_15  and  O_16 
REMARK    4  A    between atoms: C_18  and  O_19 
REMARK    5  A    between atoms: C_18  and  C_20 
REMARK    6  A    between atoms: C_20  and  O_21 
REMARK    7  A    between atoms: C_23  and  O_24 
ROOT
ATOM      1  N           0     138.704 133.275 148.081  0.00  0.00    -0.235 N 
ATOM      2  H           0     138.486 133.406 149.018  0.00  0.00     0.174 HD
ATOM      3  H           0     139.538 133.617 147.724  0.00  0.00     0.174 HD
ATOM      4  C           0     137.876 132.635 147.303  0.00  0.00     0.670 C 
ATOM      5  N           0     136.677 132.127 147.778  0.00  0.00    -0.200 N 
ATOM      6  C           0     135.481 132.285 146.933  0.00  0.00     0.244 C 
ATOM      7  C           0     135.826 131.816 145.516  0.00  0.00     0.101 C 
ATOM      8  C           0     137.046 132.602 145.019  0.00  0.00     0.119 C 
ATOM      9  C           0     136.651 134.083 144.936  0.00  0.00     0.243 C 
ATOM     10  N           0     138.150 132.432 145.956  0.00  0.00    -0.211 N 
ATOM     11  C           0     134.651 132.065 144.571  0.00  0.00     0.177 C 
ATOM     12  O           0     134.355 133.454 144.477  0.00  0.00    -0.322 OA
ATOM     13  C           0     135.469 134.165 143.963  0.00  0.00     0.311 C 
ATOM     14  O           0     135.869 133.746 142.671  0.00  0.00    -0.319 OA
ATOM     15  C           0     135.026 131.545 143.176  0.00  0.00     0.134 C 
ATOM     16  C           0     136.232 132.369 142.686  0.00  0.00     0.198 C 
ATOM     17  C           0     137.417 132.128 143.614  0.00  0.00     0.182 C 
ATOM     18  H           0     136.627 131.681 148.637  0.00  0.00     0.180 HD
ATOM     19  H           0     139.037 132.183 145.654  0.00  0.00     0.178 HD
ENDROOT
BRANCH  15  20
ATOM     20  O           0     135.386 130.165 143.254  0.00  0.00    -0.382 OA
ATOM     21  H           0     134.684 129.666 142.815  0.00  0.00     0.210 HD
ENDBRANCH  15  20
BRANCH  15  22
ATOM     22  C           0     133.843 131.720 142.222  0.00  0.00     0.207 C 
BRANCH  22  23
ATOM     23  O           0     132.636 131.342 142.888  0.00  0.00    -0.398 OA
ATOM     24  H           0     132.508 130.399 142.720  0.00  0.00     0.209 HD
ENDBRANCH  22  23
ENDBRANCH  15  22
BRANCH  17  25
ATOM     25  O           0     138.550 132.861 143.145  0.00  0.00    -0.390 OA
ATOM     26  H           0     138.405 133.786 143.390  0.00  0.00     0.210 HD
ENDBRANCH  17  25
BRANCH   6  27
ATOM     27  O           0     134.413 131.491 147.456  0.00  0.00    -0.376 OA
ATOM     28  H           0     133.709 131.497 146.791  0.00  0.00     0.212 HD
ENDBRANCH   6  27
BRANCH  13  29
ATOM     29  O           0     135.093 135.540 143.853  0.00  0.00    -0.341 OA
ATOM     30  H           0     134.207 135.557 143.466  0.00  0.00     0.215 HD
ENDBRANCH  13  29
BRANCH   9  31
ATOM     31  O           0     136.261 134.559 146.226  0.00  0.00    -0.385 OA
ATOM     32  H           0     137.069 134.644 146.749  0.00  0.00     0.210 HD
ENDBRANCH   9  31
TORSDOF 7
ENDMDL
MODEL 7
REMARK VINA RESULT:      -6.4      3.191      5.292
REMARK  7 active torsions:
REMARK  status: ('A' for Active; 'I' for Inactive)
REMARK    1  A    between atoms: C_6  and  O_7 
REMARK    2  A    between atoms: C_10  and  O_11 
REMARK    3  A    between atoms: C_15  and  O_16 
REMARK    4  A    between atoms: C_18  and  O_19 
REMARK    5  A    between atoms: C_18  and  C_20 
REMARK    6  A    between atoms: C_20  and  O_21 
REMARK    7  A    between atoms: C_23  and  O_24 
ROOT
ATOM      1  N           0     140.054 131.676 148.187  0.00  0.00    -0.235 N 
ATOM      2  H           0     140.913 131.236 148.087  0.00  0.00     0.174 HD
ATOM      3  H           0     139.572 131.614 149.026  0.00  0.00     0.174 HD
ATOM      4  C           0     139.550 132.355 147.195  0.00  0.00     0.670 C 
ATOM      5  N           0     140.212 132.472 145.983  0.00  0.00    -0.200 N 
ATOM      6  C           0     139.414 132.356 144.750  0.00  0.00     0.244 C 
ATOM      7  C           0     138.198 133.279 144.874  0.00  0.00     0.101 C 
ATOM      8  C           0     137.428 132.913 146.149  0.00  0.00     0.119 C 
ATOM      9  C           0     136.909 131.477 145.990  0.00  0.00     0.243 C 
ATOM     10  N           0     138.321 132.995 147.298  0.00  0.00    -0.211 N 
ATOM     11  C           0     137.276 133.111 143.666  0.00  0.00     0.177 C 
ATOM     12  O           0     136.771 131.783 143.589  0.00  0.00    -0.322 OA
ATOM     13  C           0     136.012 131.472 144.746  0.00  0.00     0.311 C 
ATOM     14  O           0     134.897 132.322 144.945  0.00  0.00    -0.319 OA
ATOM     15  C           0     136.095 134.081 143.814  0.00  0.00     0.134 C 
ATOM     16  C           0     135.320 133.674 145.082  0.00  0.00     0.198 C 
ATOM     17  C           0     136.223 133.841 146.299  0.00  0.00     0.182 C 
ATOM     18  H           0     141.168 132.626 145.947  0.00  0.00     0.180 HD
ATOM     19  H           0     138.072 133.480 148.100  0.00  0.00     0.178 HD
ENDROOT
BRANCH  15  20
ATOM     20  O           0     136.580 135.417 143.954  0.00  0.00    -0.382 OA
ATOM     21  H           0     135.854 136.006 143.706  0.00  0.00     0.210 HD
ENDBRANCH  15  20
BRANCH  15  22
ATOM     22  C           0     135.188 133.984 142.585  0.00  0.00     0.207 C 
BRANCH  22  23
ATOM     23  O           0     135.935 133.465 141.483  0.00  0.00    -0.398 OA
ATOM     24  H           0     135.597 133.900 140.688  0.00  0.00     0.209 HD
ENDBRANCH  22  23
ENDBRANCH  15  22
BRANCH  17  25
ATOM     25  O           0     135.500 133.500 147.482  0.00  0.00    -0.390 OA
ATOM     26  H           0     135.326 134.328 147.951  0.00  0.00     0.210 HD
ENDBRANCH  17  25
BRANCH   6  27
ATOM     27  O           0     140.205 132.750 143.626  0.00  0.00    -0.376 OA
ATOM     28  H           0     139.778 132.379 142.840  0.00  0.00     0.212 HD
ENDBRANCH   6  27
BRANCH  13  29
ATOM     29  O           0     135.500 130.147 144.586  0.00  0.00    -0.341 OA
ATOM     30  H           0     136.016 129.732 143.882  0.00  0.00     0.215 HD
ENDBRANCH  13  29
BRANCH   9  31
ATOM     31  O           0     138.004 130.577 145.810  0.00  0.00    -0.385 OA
ATOM     32  H           0     137.768 129.990 145.080  0.00  0.00     0.210 HD
ENDBRANCH   9  31
TORSDOF 7
ENDMDL
MODEL 8
REMARK VINA RESULT:      -6.3      2.810      4.764
REMARK  7 active torsions:
REMARK  status: ('A' for Active; 'I' for Inactive)
REMARK    1  A    between atoms: C_6  and  O_7 
REMARK    2  A    between atoms: C_10  and  O_11 
REMARK    3  A    between atoms: C_15  and  O_16 
REMARK    4  A    between atoms: C_18  and  O_19 
REMARK    5  A    between atoms: C_18  and  C_20 
REMARK    6  A    between atoms: C_20  and  O_21 
REMARK    7  A    between atoms: C_23  and  O_24 
ROOT
ATOM      1  N           0     134.167 128.860 147.397  0.00  0.00    -0.235 N 
ATOM      2  H           0     133.222 128.671 147.513  0.00  0.00     0.174 HD
ATOM      3  H           0     134.814 128.501 148.024  0.00  0.00     0.174 HD
ATOM      4  C           0     134.565 129.594 146.397  0.00  0.00     0.670 C 
ATOM      5  N           0     133.671 130.121 145.478  0.00  0.00    -0.200 N 
ATOM      6  C           0     133.878 131.510 145.034  0.00  0.00     0.244 C 
ATOM      7  C           0     135.344 131.672 144.622  0.00  0.00     0.101 C 
ATOM      8  C           0     136.237 131.255 145.797  0.00  0.00     0.119 C 
ATOM      9  C           0     135.971 132.224 146.958  0.00  0.00     0.243 C 
ATOM     10  N           0     135.909 129.893 146.200  0.00  0.00    -0.211 N 
ATOM     11  C           0     135.638 133.127 144.260  0.00  0.00     0.177 C 
ATOM     12  O           0     135.436 133.984 145.378  0.00  0.00    -0.322 OA
ATOM     13  C           0     136.306 133.627 146.440  0.00  0.00     0.311 C 
ATOM     14  O           0     137.680 133.710 146.107  0.00  0.00    -0.319 OA
ATOM     15  C           0     137.104 133.233 143.816  0.00  0.00     0.134 C 
ATOM     16  C           0     137.981 132.841 145.020  0.00  0.00     0.198 C 
ATOM     17  C           0     137.704 131.389 145.392  0.00  0.00     0.182 C 
ATOM     18  H           0     132.934 129.591 145.137  0.00  0.00     0.180 HD
ATOM     19  H           0     136.597 129.220 146.321  0.00  0.00     0.178 HD
ENDROOT
BRANCH  15  20
ATOM     20  O           0     137.349 132.336 142.731  0.00  0.00    -0.382 OA
ATOM     21  H           0     138.304 132.330 142.582  0.00  0.00     0.210 HD
ENDBRANCH  15  20
BRANCH  15  22
ATOM     22  C           0     137.412 134.668 143.382  0.00  0.00     0.207 C 
BRANCH  22  23
ATOM     23  O           0     138.184 134.647 142.181  0.00  0.00    -0.398 OA
ATOM     24  H           0     137.556 134.649 141.445  0.00  0.00     0.209 HD
ENDBRANCH  22  23
ENDBRANCH  15  22
BRANCH  17  25
ATOM     25  O           0     138.540 131.007 146.486  0.00  0.00    -0.390 OA
ATOM     26  H           0     137.957 130.655 147.173  0.00  0.00     0.210 HD
ENDBRANCH  17  25
BRANCH   6  27
ATOM     27  O           0     133.030 131.791 143.918  0.00  0.00    -0.376 OA
ATOM     28  H           0     133.503 131.497 143.127  0.00  0.00     0.212 HD
ENDBRANCH   6  27
BRANCH  13  29
ATOM     29  O           0     136.083 134.549 147.510  0.00  0.00    -0.341 OA
ATOM     30  H           0     136.921 134.634 147.984  0.00  0.00     0.215 HD
ENDBRANCH  13  29
BRANCH   9  31
ATOM     31  O           0     134.597 132.158 147.346  0.00  0.00    -0.385 OA
ATOM     32  H           0     134.566 131.680 148.186  0.00  0.00     0.210 HD
ENDBRANCH   9  31
TORSDOF 7
ENDMDL
MODEL 9
REMARK VINA RESULT:      -6.2      6.116      7.909
REMARK  7 active torsions:
REMARK  status: ('A' for Active; 'I' for Inactive)
REMARK    1  A    between atoms: C_6  and  O_7 
REMARK    2  A    between atoms: C_10  and  O_11 
REMARK    3  A    between atoms: C_15  and  O_16 
REMARK    4  A    between atoms: C_18  and  O_19 
REMARK    5  A    between atoms: C_18  and  C_20 
REMARK    6  A    between atoms: C_20  and  O_21 
REMARK    7  A    between atoms: C_23  and  O_24 
ROOT
ATOM      1  N           0     136.627 130.272 150.269  0.00  0.00    -0.235 N 
ATOM      2  H           0     137.413 129.703 150.255  0.00  0.00     0.174 HD
ATOM      3  H           0     136.452 130.840 151.035  0.00  0.00     0.174 HD
ATOM      4  C           0     135.808 130.276 149.255  0.00  0.00     0.670 C 
ATOM      5  N           0     136.026 129.482 148.140  0.00  0.00    -0.200 N 
ATOM      6  C           0     134.867 128.792 147.548  0.00  0.00     0.244 C 
ATOM      7  C           0     133.742 129.814 147.360  0.00  0.00     0.101 C 
ATOM      8  C           0     133.447 130.479 148.711  0.00  0.00     0.119 C 
ATOM      9  C           0     132.935 129.394 149.669  0.00  0.00     0.243 C 
ATOM     10  N           0     134.669 131.073 149.239  0.00  0.00    -0.211 N 
ATOM     11  C           0     132.475 129.125 146.854  0.00  0.00     0.177 C 
ATOM     12  O           0     132.000 128.170 147.796  0.00  0.00    -0.322 OA
ATOM     13  C           0     131.677 128.801 149.024  0.00  0.00     0.311 C 
ATOM     14  O           0     130.673 129.794 148.910  0.00  0.00    -0.319 OA
ATOM     15  C           0     131.390 130.191 146.643  0.00  0.00     0.134 C 
ATOM     16  C           0     131.089 130.821 148.016  0.00  0.00     0.198 C 
ATOM     17  C           0     132.341 131.519 148.535  0.00  0.00     0.182 C 
ATOM     18  H           0     136.913 129.385 147.760  0.00  0.00     0.180 HD
ATOM     19  H           0     134.691 131.987 149.561  0.00  0.00     0.178 HD
ENDROOT
BRANCH  15  20
ATOM     20  O           0     131.865 131.196 145.746  0.00  0.00    -0.382 OA
ATOM     21  H           0     132.177 131.932 146.290  0.00  0.00     0.210 HD
ENDBRANCH  15  20
BRANCH  15  22
ATOM     22  C           0     130.128 129.540 146.072  0.00  0.00     0.207 C 
BRANCH  22  23
ATOM     23  O           0     130.306 129.305 144.674  0.00  0.00    -0.398 OA
ATOM     24  H           0     129.645 128.648 144.415  0.00  0.00     0.209 HD
ENDBRANCH  22  23
ENDBRANCH  15  22
BRANCH  17  25
ATOM     25  O           0     132.060 132.137 149.791  0.00  0.00    -0.390 OA
ATOM     26  H           0     131.417 132.839 149.620  0.00  0.00     0.210 HD
ENDBRANCH  17  25
BRANCH   6  27
ATOM     27  O           0     135.230 128.238 146.282  0.00  0.00    -0.376 OA
ATOM     28  H           0     134.468 127.729 145.971  0.00  0.00     0.212 HD
ENDBRANCH   6  27
BRANCH  13  29
ATOM     29  O           0     131.168 127.799 149.906  0.00  0.00    -0.341 OA
ATOM     30  H           0     131.081 128.210 150.776  0.00  0.00     0.215 HD
ENDBRANCH  13  29
BRANCH   9  31
ATOM     31  O           0     133.927 128.379 149.834  0.00  0.00    -0.385 OA
ATOM     32  H           0     134.051 127.964 148.970  0.00  0.00     0.210 HD
ENDBRANCH   9  31
TORSDOF 7
ENDMDL
