MODEL 1
REMARK VINA RESULT:      -7.3      0.000      0.000
REMARK  11 active torsions:
REMARK  status: ('A' for Active; 'I' for Inactive)
REMARK    1  A    between atoms: C_6  and  C_7 
REMARK    2  A    between atoms: C_7  and  O_8 
REMARK    3  A    between atoms: O_8  and  C_9 
REMARK       I    between atoms: C_9  and  N_10 
REMARK    4  A    between atoms: N_10  and  C_11 
REMARK    5  A    between atoms: C_11  and  C_12 
REMARK    6  A    between atoms: C_12  and  C_13 
REMARK    7  A    between atoms: C_13  and  C_14 
REMARK    8  A    between atoms: C_14  and  C_15 
REMARK    9  A    between atoms: C_15  and  C_16 
REMARK   10  A    between atoms: C_30  and  O_31 
REMARK   11  A    between atoms: C_30  and  O_32 
ROOT
ATOM      1  N           0     131.359 136.848 132.090  0.00  0.00    -0.235 N 
ATOM      2  H           0     130.487 137.188 131.838  0.00  0.00     0.174 HD
ATOM      3  H           0     132.156 137.185 131.653  0.00  0.00     0.174 HD
ATOM      4  C           0     131.460 135.940 133.020  0.00  0.00     0.672 C 
ATOM      5  N           0     130.353 135.433 133.678  0.00  0.00    -0.218 N 
ATOM      6  C           0     130.424 134.071 134.201  0.00  0.00     0.151 C 
ATOM      7  C           0     131.657 133.835 135.052  0.00  0.00     0.180 C 
ATOM      8  N           0     131.455 134.448 136.381  0.00  0.00    -0.216 N 
ATOM      9  C           0     132.645 135.022 136.759  0.00  0.00     0.670 C 
ATOM     10  N           0     132.952 135.328 137.987  0.00  0.00    -0.235 N 
ATOM     11  H           0     132.321 135.154 138.703  0.00  0.00     0.174 HD
ATOM     12  H           0     133.812 135.732 138.186  0.00  0.00     0.174 HD
ATOM     13  C           0     132.913 134.510 134.525  0.00  0.00     0.217 C 
ATOM     14  N           0     133.470 135.230 135.682  0.00  0.00    -0.191 N 
ATOM     15  N           0     132.669 135.424 133.407  0.00  0.00    -0.183 N 
ATOM     16  C           0     133.982 135.614 132.766  0.00  0.00     0.150 C 
ATOM     17  C           0     134.647 134.219 132.832  0.00  0.00     0.093 C 
ATOM     18  C           0     133.938 133.490 134.001  0.00  0.00     0.209 C 
ATOM     19  H           0     129.551 135.967 133.787  0.00  0.00     0.178 HD
ATOM     20  H           0     130.631 134.447 136.894  0.00  0.00     0.178 HD
ATOM     21  H           0     134.283 135.759 135.684  0.00  0.00     0.180 HD
ENDROOT
BRANCH   6  22
ATOM     22  C           0     130.441 133.090 133.027  0.00  0.00     0.208 C 
BRANCH  22  23
ATOM     23  O           0     130.524 131.732 133.533  0.00  0.00    -0.302 OA
BRANCH  23  24
ATOM     24  C           0     129.860 130.740 132.910  0.00  0.00     0.360 C 
ATOM     25  N           0     130.023 129.464 133.311  0.00  0.00    -0.337 N 
ATOM     26  H           0     130.619 129.260 134.048  0.00  0.00     0.164 HD
ATOM     27  O           0     129.112 130.995 131.986  0.00  0.00    -0.239 OA
BRANCH  25  28
ATOM     28  C           0     129.300 128.384 132.633  0.00  0.00     0.125 C 
BRANCH  28  29
ATOM     29  C           0     130.226 127.709 131.619  0.00  0.00     0.020 C 
BRANCH  29  30
ATOM     30  C           0     130.390 126.232 131.984  0.00  0.00     0.002 C 
BRANCH  30  31
ATOM     31  C           0     131.639 126.057 132.850  0.00  0.00     0.000 C 
BRANCH  31  32
ATOM     32  C           0     132.772 126.921 132.293  0.00  0.00    -0.000 C 
BRANCH  32  33
ATOM     33  C           0     134.110 126.426 132.845  0.00  0.00    -0.005 C 
ATOM     34  C           0     134.886 125.712 131.737  0.00  0.00     0.005 C 
ENDBRANCH  32  33
ENDBRANCH  31  32
ENDBRANCH  30  31
ENDBRANCH  29  30
ENDBRANCH  28  29
ENDBRANCH  25  28
ENDBRANCH  23  24
ENDBRANCH  22  23
ENDBRANCH   6  22
BRANCH  18  35
ATOM     35  O           0     134.879 133.153 135.023  0.00  0.00    -0.362 OA
ATOM     36  H           0     135.391 133.952 135.205  0.00  0.00     0.213 HD
ENDBRANCH  18  35
BRANCH  18  37
ATOM     37  O           0     133.274 132.317 133.527  0.00  0.00    -0.362 OA
ATOM     38  H           0     133.336 131.657 134.230  0.00  0.00     0.213 HD
ENDBRANCH  18  37
TORSDOF 11
ENDMDL
MODEL 2
REMARK VINA RESULT:      -7.3      3.309      7.695
REMARK  11 active torsions:
REMARK  status: ('A' for Active; 'I' for Inactive)
REMARK    1  A    between atoms: C_6  and  C_7 
REMARK    2  A    between atoms: C_7  and  O_8 
REMARK    3  A    between atoms: O_8  and  C_9 
REMARK       I    between atoms: C_9  and  N_10 
REMARK    4  A    between atoms: N_10  and  C_11 
REMARK    5  A    between atoms: C_11  and  C_12 
REMARK    6  A    between atoms: C_12  and  C_13 
REMARK    7  A    between atoms: C_13  and  C_14 
REMARK    8  A    between atoms: C_14  and  C_15 
REMARK    9  A    between atoms: C_15  and  C_16 
REMARK   10  A    between atoms: C_30  and  O_31 
REMARK   11  A    between atoms: C_30  and  O_32 
ROOT
ATOM      1  N           0     133.973 134.326 132.281  0.00  0.00    -0.235 N 
ATOM      2  H           0     134.846 134.396 132.698  0.00  0.00     0.174 HD
ATOM      3  H           0     133.857 134.581 131.353  0.00  0.00     0.174 HD
ATOM      4  C           0     132.956 133.886 132.967  0.00  0.00     0.672 C 
ATOM      5  N           0     133.072 133.504 134.293  0.00  0.00    -0.218 N 
ATOM      6  C           0     131.898 133.627 135.153  0.00  0.00     0.151 C 
ATOM      7  C           0     130.665 132.977 134.555  0.00  0.00     0.180 C 
ATOM      8  N           0     130.761 131.511 134.718  0.00  0.00    -0.216 N 
ATOM      9  C           0     130.282 130.934 133.567  0.00  0.00     0.670 C 
ATOM     10  N           0     129.879 129.698 133.481  0.00  0.00    -0.235 N 
ATOM     11  H           0     129.908 129.122 134.262  0.00  0.00     0.174 HD
ATOM     12  H           0     129.551 129.352 132.636  0.00  0.00     0.174 HD
ATOM     13  C           0     130.527 133.170 133.054  0.00  0.00     0.217 C 
ATOM     14  N           0     130.280 131.821 132.520  0.00  0.00    -0.191 N 
ATOM     15  N           0     131.703 133.775 132.425  0.00  0.00    -0.183 N 
ATOM     16  C           0     131.231 134.283 131.125  0.00  0.00     0.150 C 
ATOM     17  C           0     129.817 134.839 131.420  0.00  0.00     0.093 C 
ATOM     18  C           0     129.352 134.097 132.699  0.00  0.00     0.209 C 
ATOM     19  H           0     133.911 133.164 134.641  0.00  0.00     0.178 HD
ATOM     20  H           0     131.102 131.041 135.496  0.00  0.00     0.178 HD
ATOM     21  H           0     130.136 131.597 131.587  0.00  0.00     0.180 HD
ENDROOT
BRANCH   6  22
ATOM     22  C           0     131.609 135.111 135.385  0.00  0.00     0.208 C 
BRANCH  22  23
ATOM     23  O           0     132.776 135.745 135.971  0.00  0.00    -0.302 OA
BRANCH  23  24
ATOM     24  C           0     133.299 135.267 137.117  0.00  0.00     0.360 C 
ATOM     25  N           0     132.613 135.384 138.271  0.00  0.00    -0.337 N 
ATOM     26  H           0     131.743 135.813 138.276  0.00  0.00     0.164 HD
ATOM     27  O           0     134.389 134.730 137.109  0.00  0.00    -0.239 OA
BRANCH  25  28
ATOM     28  C           0     133.182 134.865 139.517  0.00  0.00     0.125 C 
BRANCH  28  29
ATOM     29  C           0     132.286 133.750 140.060  0.00  0.00     0.020 C 
BRANCH  29  30
ATOM     30  C           0     132.906 133.173 141.335  0.00  0.00     0.002 C 
BRANCH  30  31
ATOM     31  C           0     134.146 133.986 141.711  0.00  0.00     0.000 C 
BRANCH  31  32
ATOM     32  C           0     134.453 133.789 143.197  0.00  0.00    -0.000 C 
BRANCH  32  33
ATOM     33  C           0     135.234 134.996 143.721  0.00  0.00    -0.005 C 
ATOM     34  C           0     134.633 136.281 143.147  0.00  0.00     0.005 C 
ENDBRANCH  32  33
ENDBRANCH  31  32
ENDBRANCH  30  31
ENDBRANCH  29  30
ENDBRANCH  28  29
ENDBRANCH  25  28
ENDBRANCH  23  24
ENDBRANCH  22  23
ENDBRANCH   6  22
BRANCH  18  35
ATOM     35  O           0     128.173 133.335 132.431  0.00  0.00    -0.362 OA
ATOM     36  H           0     127.432 133.824 132.814  0.00  0.00     0.213 HD
ENDBRANCH  18  35
BRANCH  18  37
ATOM     37  O           0     129.116 135.027 133.756  0.00  0.00    -0.362 OA
ATOM     38  H           0     128.788 134.518 134.509  0.00  0.00     0.213 HD
ENDBRANCH  18  37
TORSDOF 11
ENDMDL
MODEL 3
REMARK VINA RESULT:      -7.3     10.092     13.325
REMARK  11 active torsions:
REMARK  status: ('A' for Active; 'I' for Inactive)
REMARK    1  A    between atoms: C_6  and  C_7 
REMARK    2  A    between atoms: C_7  and  O_8 
REMARK    3  A    between atoms: O_8  and  C_9 
REMARK       I    between atoms: C_9  and  N_10 
REMARK    4  A    between atoms: N_10  and  C_11 
REMARK    5  A    between atoms: C_11  and  C_12 
REMARK    6  A    between atoms: C_12  and  C_13 
REMARK    7  A    between atoms: C_13  and  C_14 
REMARK    8  A    between atoms: C_14  and  C_15 
REMARK    9  A    between atoms: C_15  and  C_16 
REMARK   10  A    between atoms: C_30  and  O_31 
REMARK   11  A    between atoms: C_30  and  O_32 
ROOT
ATOM      1  N           0     134.718 132.062 146.681  0.00  0.00    -0.235 N 
ATOM      2  H           0     134.927 132.169 147.622  0.00  0.00     0.174 HD
ATOM      3  H           0     134.068 131.399 146.402  0.00  0.00     0.174 HD
ATOM      4  C           0     135.306 132.813 145.794  0.00  0.00     0.672 C 
ATOM      5  N           0     136.235 133.778 146.145  0.00  0.00    -0.218 N 
ATOM      6  C           0     137.272 134.123 145.176  0.00  0.00     0.151 C 
ATOM      7  C           0     136.707 134.452 143.807  0.00  0.00     0.180 C 
ATOM      8  N           0     136.131 135.814 143.834  0.00  0.00    -0.216 N 
ATOM      9  C           0     134.971 135.787 143.098  0.00  0.00     0.670 C 
ATOM     10  N           0     134.395 136.845 142.603  0.00  0.00    -0.235 N 
ATOM     11  H           0     134.784 137.722 142.747  0.00  0.00     0.174 HD
ATOM     12  H           0     133.575 136.757 142.091  0.00  0.00     0.174 HD
ATOM     13  C           0     135.543 133.570 143.387  0.00  0.00     0.217 C 
ATOM     14  N           0     134.496 134.508 142.948  0.00  0.00    -0.191 N 
ATOM     15  N           0     135.049 132.696 144.453  0.00  0.00    -0.183 N 
ATOM     16  C           0     134.275 131.646 143.768  0.00  0.00     0.150 C 
ATOM     17  C           0     135.083 131.350 142.482  0.00  0.00     0.093 C 
ATOM     18  C           0     135.921 132.630 142.231  0.00  0.00     0.209 C 
ATOM     19  H           0     136.199 134.212 147.011  0.00  0.00     0.178 HD
ATOM     20  H           0     136.503 136.585 144.289  0.00  0.00     0.178 HD
ATOM     21  H           0     133.622 134.264 142.607  0.00  0.00     0.180 HD
ENDROOT
BRANCH   6  22
ATOM     22  C           0     138.235 132.942 145.040  0.00  0.00     0.208 C 
BRANCH  22  23
ATOM     23  O           0     138.815 132.640 146.336  0.00  0.00    -0.302 OA
BRANCH  23  24
ATOM     24  C           0     138.812 131.374 146.796  0.00  0.00     0.360 C 
ATOM     25  N           0     137.919 130.999 147.732  0.00  0.00    -0.337 N 
ATOM     26  H           0     137.278 131.641 148.075  0.00  0.00     0.164 HD
ATOM     27  O           0     139.616 130.569 146.366  0.00  0.00    -0.239 OA
BRANCH  25  28
ATOM     28  C           0     137.916 129.622 148.232  0.00  0.00     0.125 C 
BRANCH  28  29
ATOM     29  C           0     136.472 129.138 148.385  0.00  0.00     0.020 C 
BRANCH  29  30
ATOM     30  C           0     135.864 128.905 147.001  0.00  0.00     0.002 C 
BRANCH  30  31
ATOM     31  C           0     134.453 128.331 147.154  0.00  0.00     0.000 C 
BRANCH  31  32
ATOM     32  C           0     133.935 128.620 148.564  0.00  0.00    -0.000 C 
BRANCH  32  33
ATOM     33  C           0     132.437 128.319 148.629  0.00  0.00    -0.005 C 
ATOM     34  C           0     132.065 127.338 147.515  0.00  0.00     0.005 C 
ENDBRANCH  32  33
ENDBRANCH  31  32
ENDBRANCH  30  31
ENDBRANCH  29  30
ENDBRANCH  28  29
ENDBRANCH  25  28
ENDBRANCH  23  24
ENDBRANCH  22  23
ENDBRANCH   6  22
BRANCH  18  35
ATOM     35  O           0     135.575 133.214 140.973  0.00  0.00    -0.362 OA
ATOM     36  H           0     134.730 132.825 140.709  0.00  0.00     0.213 HD
ENDBRANCH  18  35
BRANCH  18  37
ATOM     37  O           0     137.317 132.327 142.273  0.00  0.00    -0.362 OA
ATOM     38  H           0     137.418 131.428 141.933  0.00  0.00     0.213 HD
ENDBRANCH  18  37
TORSDOF 11
ENDMDL
MODEL 4
REMARK VINA RESULT:      -7.2      6.254      9.598
REMARK  11 active torsions:
REMARK  status: ('A' for Active; 'I' for Inactive)
REMARK    1  A    between atoms: C_6  and  C_7 
REMARK    2  A    between atoms: C_7  and  O_8 
REMARK    3  A    between atoms: O_8  and  C_9 
REMARK       I    between atoms: C_9  and  N_10 
REMARK    4  A    between atoms: N_10  and  C_11 
REMARK    5  A    between atoms: C_11  and  C_12 
REMARK    6  A    between atoms: C_12  and  C_13 
REMARK    7  A    between atoms: C_13  and  C_14 
REMARK    8  A    between atoms: C_14  and  C_15 
REMARK    9  A    between atoms: C_15  and  C_16 
REMARK   10  A    between atoms: C_30  and  O_31 
REMARK   11  A    between atoms: C_30  and  O_32 
ROOT
ATOM      1  N           0     135.287 136.777 143.296  0.00  0.00    -0.235 N 
ATOM      2  H           0     134.534 137.351 143.086  0.00  0.00     0.174 HD
ATOM      3  H           0     136.163 137.163 143.447  0.00  0.00     0.174 HD
ATOM      4  C           0     135.121 135.487 143.378  0.00  0.00     0.672 C 
ATOM      5  N           0     133.888 134.889 143.177  0.00  0.00    -0.218 N 
ATOM      6  C           0     133.859 133.519 142.670  0.00  0.00     0.151 C 
ATOM      7  C           0     134.742 132.581 143.471  0.00  0.00     0.180 C 
ATOM      8  N           0     134.061 132.239 144.739  0.00  0.00    -0.216 N 
ATOM      9  C           0     135.015 132.217 145.728  0.00  0.00     0.670 C 
ATOM     10  N           0     134.866 131.616 146.874  0.00  0.00    -0.235 N 
ATOM     11  H           0     134.041 131.146 147.073  0.00  0.00     0.174 HD
ATOM     12  H           0     135.581 131.639 147.530  0.00  0.00     0.174 HD
ATOM     13  C           0     136.059 133.196 143.918  0.00  0.00     0.217 C 
ATOM     14  N           0     136.143 132.906 145.358  0.00  0.00    -0.191 N 
ATOM     15  N           0     136.154 134.635 143.666  0.00  0.00    -0.183 N 
ATOM     16  C           0     137.593 134.947 143.732  0.00  0.00     0.150 C 
ATOM     17  C           0     138.280 133.734 143.060  0.00  0.00     0.093 C 
ATOM     18  C           0     137.260 132.573 143.187  0.00  0.00     0.209 C 
ATOM     19  H           0     133.066 135.367 143.366  0.00  0.00     0.178 HD
ATOM     20  H           0     133.114 132.063 144.852  0.00  0.00     0.178 HD
ATOM     21  H           0     136.873 133.156 145.946  0.00  0.00     0.180 HD
ENDROOT
BRANCH   6  22
ATOM     22  C           0     134.335 133.520 141.216  0.00  0.00     0.208 C 
BRANCH  22  23
ATOM     23  O           0     133.868 134.725 140.555  0.00  0.00    -0.302 OA
BRANCH  23  24
ATOM     24  C           0     133.440 134.670 139.279  0.00  0.00     0.360 C 
ATOM     25  N           0     134.058 135.399 138.329  0.00  0.00    -0.337 N 
ATOM     26  H           0     134.812 135.963 138.565  0.00  0.00     0.164 HD
ATOM     27  O           0     132.497 133.963 138.984  0.00  0.00    -0.239 OA
BRANCH  25  28
ATOM     28  C           0     133.594 135.339 136.941  0.00  0.00     0.125 C 
BRANCH  28  29
ATOM     29  C           0     134.796 135.195 136.006  0.00  0.00     0.020 C 
BRANCH  29  30
ATOM     30  C           0     134.327 134.660 134.651  0.00  0.00     0.002 C 
BRANCH  30  31
ATOM     31  C           0     133.104 135.453 134.186  0.00  0.00     0.000 C 
BRANCH  31  32
ATOM     32  C           0     132.058 134.491 133.618  0.00  0.00    -0.000 C 
BRANCH  32  33
ATOM     33  C           0     132.091 133.180 134.406  0.00  0.00    -0.005 C 
ATOM     34  C           0     130.953 133.172 135.430  0.00  0.00     0.005 C 
ENDBRANCH  32  33
ENDBRANCH  31  32
ENDBRANCH  30  31
ENDBRANCH  29  30
ENDBRANCH  28  29
ENDBRANCH  25  28
ENDBRANCH  23  24
ENDBRANCH  22  23
ENDBRANCH   6  22
BRANCH  18  35
ATOM     35  O           0     137.816 131.503 143.955  0.00  0.00    -0.362 OA
ATOM     36  H           0     137.371 130.694 143.669  0.00  0.00     0.213 HD
ENDBRANCH  18  35
BRANCH  18  37
ATOM     37  O           0     136.870 132.109 141.894  0.00  0.00    -0.362 OA
ATOM     38  H           0     137.145 131.185 141.833  0.00  0.00     0.213 HD
ENDBRANCH  18  37
TORSDOF 11
ENDMDL
MODEL 5
REMARK VINA RESULT:      -7.1      6.235      9.554
REMARK  11 active torsions:
REMARK  status: ('A' for Active; 'I' for Inactive)
REMARK    1  A    between atoms: C_6  and  C_7 
REMARK    2  A    between atoms: C_7  and  O_8 
REMARK    3  A    between atoms: O_8  and  C_9 
REMARK       I    between atoms: C_9  and  N_10 
REMARK    4  A    between atoms: N_10  and  C_11 
REMARK    5  A    between atoms: C_11  and  C_12 
REMARK    6  A    between atoms: C_12  and  C_13 
REMARK    7  A    between atoms: C_13  and  C_14 
REMARK    8  A    between atoms: C_14  and  C_15 
REMARK    9  A    between atoms: C_15  and  C_16 
REMARK   10  A    between atoms: C_30  and  O_31 
REMARK   11  A    between atoms: C_30  and  O_32 
ROOT
ATOM      1  N           0     134.966 136.778 143.278  0.00  0.00    -0.235 N 
ATOM      2  H           0     134.170 137.286 143.059  0.00  0.00     0.174 HD
ATOM      3  H           0     135.804 137.238 143.440  0.00  0.00     0.174 HD
ATOM      4  C           0     134.910 135.478 143.358  0.00  0.00     0.672 C 
ATOM      5  N           0     133.736 134.777 143.141  0.00  0.00    -0.218 N 
ATOM      6  C           0     133.831 133.411 142.634  0.00  0.00     0.151 C 
ATOM      7  C           0     134.780 132.550 143.446  0.00  0.00     0.180 C 
ATOM      8  N           0     134.116 132.150 144.704  0.00  0.00    -0.216 N 
ATOM      9  C           0     135.056 132.209 145.705  0.00  0.00     0.670 C 
ATOM     10  N           0     134.945 131.595 146.850  0.00  0.00    -0.235 N 
ATOM     11  H           0     134.160 131.056 147.038  0.00  0.00     0.174 HD
ATOM     12  H           0     135.646 131.678 147.515  0.00  0.00     0.174 HD
ATOM     13  C           0     136.034 133.275 143.908  0.00  0.00     0.217 C 
ATOM     14  N           0     136.125 132.992 145.350  0.00  0.00    -0.191 N 
ATOM     15  N           0     136.009 134.717 143.658  0.00  0.00    -0.183 N 
ATOM     16  C           0     137.415 135.151 143.742  0.00  0.00     0.150 C 
ATOM     17  C           0     138.212 134.002 143.079  0.00  0.00     0.093 C 
ATOM     18  C           0     137.294 132.758 143.193  0.00  0.00     0.209 C 
ATOM     19  H           0     132.874 135.183 143.320  0.00  0.00     0.178 HD
ATOM     20  H           0     133.186 131.893 144.806  0.00  0.00     0.178 HD
ATOM     21  H           0     136.824 133.303 145.947  0.00  0.00     0.180 HD
ENDROOT
BRANCH   6  22
ATOM     22  C           0     134.323 133.454 141.186  0.00  0.00     0.208 C 
BRANCH  22  23
ATOM     23  O           0     133.832 134.660 140.544  0.00  0.00    -0.302 OA
BRANCH  23  24
ATOM     24  C           0     133.426 134.623 139.261  0.00  0.00     0.360 C 
ATOM     25  N           0     134.070 135.353 138.329  0.00  0.00    -0.337 N 
ATOM     26  H           0     134.826 135.905 138.582  0.00  0.00     0.164 HD
ATOM     27  O           0     132.479 133.930 138.943  0.00  0.00    -0.239 OA
BRANCH  25  28
ATOM     28  C           0     133.628 135.312 136.932  0.00  0.00     0.125 C 
BRANCH  28  29
ATOM     29  C           0     134.850 135.294 136.011  0.00  0.00     0.020 C 
BRANCH  29  30
ATOM     30  C           0     134.394 135.112 134.562  0.00  0.00     0.002 C 
BRANCH  30  31
ATOM     31  C           0     134.341 133.620 134.228  0.00  0.00     0.000 C 
BRANCH  31  32
ATOM     32  C           0     134.567 133.425 132.727  0.00  0.00    -0.000 C 
BRANCH  32  33
ATOM     33  C           0     134.337 134.752 132.001  0.00  0.00    -0.005 C 
ATOM     34  C           0     135.475 134.994 131.008  0.00  0.00     0.005 C 
ENDBRANCH  32  33
ENDBRANCH  31  32
ENDBRANCH  30  31
ENDBRANCH  29  30
ENDBRANCH  28  29
ENDBRANCH  25  28
ENDBRANCH  23  24
ENDBRANCH  22  23
ENDBRANCH   6  22
BRANCH  18  35
ATOM     35  O           0     137.929 131.739 143.967  0.00  0.00    -0.362 OA
ATOM     36  H           0     137.230 131.278 144.449  0.00  0.00     0.213 HD
ENDBRANCH  18  35
BRANCH  18  37
ATOM     37  O           0     136.960 132.265 141.895  0.00  0.00    -0.362 OA
ATOM     38  H           0     136.680 131.347 142.008  0.00  0.00     0.213 HD
ENDBRANCH  18  37
TORSDOF 11
ENDMDL
MODEL 6
REMARK VINA RESULT:      -7.0      2.027      3.488
REMARK  11 active torsions:
REMARK  status: ('A' for Active; 'I' for Inactive)
REMARK    1  A    between atoms: C_6  and  C_7 
REMARK    2  A    between atoms: C_7  and  O_8 
REMARK    3  A    between atoms: O_8  and  C_9 
REMARK       I    between atoms: C_9  and  N_10 
REMARK    4  A    between atoms: N_10  and  C_11 
REMARK    5  A    between atoms: C_11  and  C_12 
REMARK    6  A    between atoms: C_12  and  C_13 
REMARK    7  A    between atoms: C_13  and  C_14 
REMARK    8  A    between atoms: C_14  and  C_15 
REMARK    9  A    between atoms: C_15  and  C_16 
REMARK   10  A    between atoms: C_30  and  O_31 
REMARK   11  A    between atoms: C_30  and  O_32 
ROOT
ATOM      1  N           0     128.743 133.113 132.273  0.00  0.00    -0.235 N 
ATOM      2  H           0     128.163 132.361 132.469  0.00  0.00     0.174 HD
ATOM      3  H           0     128.539 133.702 131.531  0.00  0.00     0.174 HD
ATOM      4  C           0     129.795 133.334 133.011  0.00  0.00     0.672 C 
ATOM      5  N           0     130.124 132.525 134.085  0.00  0.00    -0.218 N 
ATOM      6  C           0     131.531 132.411 134.459  0.00  0.00     0.151 C 
ATOM      7  C           0     132.203 133.760 134.629  0.00  0.00     0.180 C 
ATOM      8  N           0     131.797 134.344 135.926  0.00  0.00    -0.216 N 
ATOM      9  C           0     131.603 135.690 135.731  0.00  0.00     0.670 C 
ATOM     10  N           0     131.597 136.574 136.689  0.00  0.00    -0.235 N 
ATOM     11  H           0     131.734 136.295 137.608  0.00  0.00     0.174 HD
ATOM     12  H           0     131.455 137.511 136.483  0.00  0.00     0.174 HD
ATOM     13  C           0     131.772 134.802 133.609  0.00  0.00     0.217 C 
ATOM     14  N           0     131.419 135.988 134.404  0.00  0.00    -0.191 N 
ATOM     15  N           0     130.648 134.379 132.771  0.00  0.00    -0.183 N 
ATOM     16  C           0     130.674 135.277 131.603  0.00  0.00     0.150 C 
ATOM     17  C           0     132.179 135.461 131.294  0.00  0.00     0.093 C 
ATOM     18  C           0     132.905 135.147 132.627  0.00  0.00     0.209 C 
ATOM     19  H           0     129.438 132.046 134.576  0.00  0.00     0.178 HD
ATOM     20  H           0     131.687 133.864 136.761  0.00  0.00     0.178 HD
ATOM     21  H           0     131.112 136.838 134.052  0.00  0.00     0.180 HD
ENDROOT
BRANCH   6  22
ATOM     22  C           0     132.269 131.629 133.371  0.00  0.00     0.208 C 
BRANCH  22  23
ATOM     23  O           0     133.649 131.425 133.773  0.00  0.00    -0.302 OA
BRANCH  23  24
ATOM     24  C           0     134.149 130.177 133.856  0.00  0.00     0.360 C 
ATOM     25  N           0     134.064 129.345 132.799  0.00  0.00    -0.337 N 
ATOM     26  H           0     133.642 129.646 131.979  0.00  0.00     0.164 HD
ATOM     27  O           0     134.678 129.801 134.883  0.00  0.00    -0.239 OA
BRANCH  25  28
ATOM     28  C           0     134.608 127.988 132.888  0.00  0.00     0.125 C 
BRANCH  28  29
ATOM     29  C           0     133.566 126.987 132.386  0.00  0.00     0.020 C 
BRANCH  29  30
ATOM     30  C           0     132.292 127.734 131.986  0.00  0.00     0.002 C 
BRANCH  30  31
ATOM     31  C           0     131.085 127.086 132.669  0.00  0.00     0.000 C 
BRANCH  31  32
ATOM     32  C           0     129.895 127.086 131.708  0.00  0.00    -0.000 C 
BRANCH  32  33
ATOM     33  C           0     128.699 127.769 132.377  0.00  0.00    -0.005 C 
ATOM     34  C           0     129.091 129.188 132.795  0.00  0.00     0.005 C 
ENDBRANCH  32  33
ENDBRANCH  31  32
ENDBRANCH  30  31
ENDBRANCH  29  30
ENDBRANCH  28  29
ENDBRANCH  25  28
ENDBRANCH  23  24
ENDBRANCH  22  23
ENDBRANCH   6  22
BRANCH  18  35
ATOM     35  O           0     133.631 136.292 133.080  0.00  0.00    -0.362 OA
ATOM     36  H           0     133.085 136.720 133.753  0.00  0.00     0.213 HD
ENDBRANCH  18  35
BRANCH  18  37
ATOM     37  O           0     133.781 134.031 132.467  0.00  0.00    -0.362 OA
ATOM     38  H           0     133.522 133.588 131.648  0.00  0.00     0.213 HD
ENDBRANCH  18  37
TORSDOF 11
ENDMDL
MODEL 7
REMARK VINA RESULT:      -7.0      4.320      8.076
REMARK  11 active torsions:
REMARK  status: ('A' for Active; 'I' for Inactive)
REMARK    1  A    between atoms: C_6  and  C_7 
REMARK    2  A    between atoms: C_7  and  O_8 
REMARK    3  A    between atoms: O_8  and  C_9 
REMARK       I    between atoms: C_9  and  N_10 
REMARK    4  A    between atoms: N_10  and  C_11 
REMARK    5  A    between atoms: C_11  and  C_12 
REMARK    6  A    between atoms: C_12  and  C_13 
REMARK    7  A    between atoms: C_13  and  C_14 
REMARK    8  A    between atoms: C_14  and  C_15 
REMARK    9  A    between atoms: C_15  and  C_16 
REMARK   10  A    between atoms: C_30  and  O_31 
REMARK   11  A    between atoms: C_30  and  O_32 
ROOT
ATOM      1  N           0     131.332 132.184 134.972  0.00  0.00    -0.235 N 
ATOM      2  H           0     130.721 131.843 135.643  0.00  0.00     0.174 HD
ATOM      3  H           0     131.711 131.582 134.312  0.00  0.00     0.174 HD
ATOM      4  C           0     131.642 133.450 134.953  0.00  0.00     0.672 C 
ATOM      5  N           0     131.122 134.348 135.870  0.00  0.00    -0.218 N 
ATOM      6  C           0     131.917 135.525 136.211  0.00  0.00     0.151 C 
ATOM      7  C           0     132.393 136.284 134.986  0.00  0.00     0.180 C 
ATOM      8  N           0     131.269 137.071 134.436  0.00  0.00    -0.216 N 
ATOM      9  C           0     131.341 136.995 133.066  0.00  0.00     0.670 C 
ATOM     10  N           0     130.759 137.832 132.255  0.00  0.00    -0.235 N 
ATOM     11  H           0     130.233 138.566 132.610  0.00  0.00     0.174 HD
ATOM     12  H           0     130.851 137.722 131.295  0.00  0.00     0.174 HD
ATOM     13  C           0     132.816 135.393 133.829  0.00  0.00     0.217 C 
ATOM     14  N           0     132.103 135.928 132.658  0.00  0.00    -0.191 N 
ATOM     15  N           0     132.505 133.976 134.029  0.00  0.00    -0.183 N 
ATOM     16  C           0     133.358 133.252 133.071  0.00  0.00     0.150 C 
ATOM     17  C           0     134.697 134.026 133.086  0.00  0.00     0.093 C 
ATOM     18  C           0     134.334 135.448 133.587  0.00  0.00     0.209 C 
ATOM     19  H           0     130.254 134.199 136.275  0.00  0.00     0.178 HD
ATOM     20  H           0     130.601 137.553 134.949  0.00  0.00     0.178 HD
ATOM     21  H           0     132.163 135.588 131.752  0.00  0.00     0.180 HD
ENDROOT
BRANCH   6  22
ATOM     22  C           0     133.137 135.081 137.018  0.00  0.00     0.208 C 
BRANCH  22  23
ATOM     23  O           0     132.938 135.411 138.418  0.00  0.00    -0.302 OA
BRANCH  23  24
ATOM     24  C           0     133.020 134.448 139.356  0.00  0.00     0.360 C 
ATOM     25  N           0     134.048 134.442 140.227  0.00  0.00    -0.337 N 
ATOM     26  H           0     134.729 135.132 140.178  0.00  0.00     0.164 HD
ATOM     27  O           0     132.167 133.585 139.416  0.00  0.00    -0.239 OA
BRANCH  25  28
ATOM     28  C           0     134.138 133.395 141.247  0.00  0.00     0.125 C 
BRANCH  28  29
ATOM     29  C           0     133.787 133.983 142.615  0.00  0.00     0.020 C 
BRANCH  29  30
ATOM     30  C           0     134.379 135.389 142.733  0.00  0.00     0.002 C 
BRANCH  30  31
ATOM     31  C           0     135.631 135.344 143.611  0.00  0.00     0.000 C 
BRANCH  31  32
ATOM     32  C           0     135.500 134.208 144.628  0.00  0.00    -0.000 C 
BRANCH  32  33
ATOM     33  C           0     136.835 133.471 144.744  0.00  0.00    -0.005 C 
ATOM     34  C           0     137.358 133.139 143.345  0.00  0.00     0.005 C 
ENDBRANCH  32  33
ENDBRANCH  31  32
ENDBRANCH  30  31
ENDBRANCH  29  30
ENDBRANCH  28  29
ENDBRANCH  25  28
ENDBRANCH  23  24
ENDBRANCH  22  23
ENDBRANCH   6  22
BRANCH  18  35
ATOM     35  O           0     134.650 136.423 132.592  0.00  0.00    -0.362 OA
ATOM     36  H           0     135.158 135.968 131.907  0.00  0.00     0.213 HD
ENDBRANCH  18  35
BRANCH  18  37
ATOM     37  O           0     135.021 135.737 134.806  0.00  0.00    -0.362 OA
ATOM     38  H           0     135.629 135.002 134.965  0.00  0.00     0.213 HD
ENDBRANCH  18  37
TORSDOF 11
ENDMDL
MODEL 8
REMARK VINA RESULT:      -6.9      4.387      7.742
REMARK  11 active torsions:
REMARK  status: ('A' for Active; 'I' for Inactive)
REMARK    1  A    between atoms: C_6  and  C_7 
REMARK    2  A    between atoms: C_7  and  O_8 
REMARK    3  A    between atoms: O_8  and  C_9 
REMARK       I    between atoms: C_9  and  N_10 
REMARK    4  A    between atoms: N_10  and  C_11 
REMARK    5  A    between atoms: C_11  and  C_12 
REMARK    6  A    between atoms: C_12  and  C_13 
REMARK    7  A    between atoms: C_13  and  C_14 
REMARK    8  A    between atoms: C_14  and  C_15 
REMARK    9  A    between atoms: C_15  and  C_16 
REMARK   10  A    between atoms: C_30  and  O_31 
REMARK   11  A    between atoms: C_30  and  O_32 
ROOT
ATOM      1  N           0     134.682 134.080 132.061  0.00  0.00    -0.235 N 
ATOM      2  H           0     135.331 133.403 132.305  0.00  0.00     0.174 HD
ATOM      3  H           0     134.858 134.672 131.313  0.00  0.00     0.174 HD
ATOM      4  C           0     133.572 134.192 132.734  0.00  0.00     0.672 C 
ATOM      5  N           0     133.274 133.367 133.805  0.00  0.00    -0.218 N 
ATOM      6  C           0     132.408 133.889 134.860  0.00  0.00     0.151 C 
ATOM      7  C           0     131.122 134.486 134.319  0.00  0.00     0.180 C 
ATOM      8  N           0     130.196 133.393 133.953  0.00  0.00    -0.216 N 
ATOM      9  C           0     129.569 133.755 132.786  0.00  0.00     0.670 C 
ATOM     10  N           0     128.453 133.232 132.363  0.00  0.00    -0.235 N 
ATOM     11  H           0     128.013 132.540 132.882  0.00  0.00     0.174 HD
ATOM     12  H           0     128.061 133.533 131.528  0.00  0.00     0.174 HD
ATOM     13  C           0     131.295 135.266 133.025  0.00  0.00     0.217 C 
ATOM     14  N           0     130.262 134.735 132.121  0.00  0.00    -0.191 N 
ATOM     15  N           0     132.627 135.138 132.431  0.00  0.00    -0.183 N 
ATOM     16  C           0     132.746 136.268 131.493  0.00  0.00     0.150 C 
ATOM     17  C           0     132.048 137.443 132.218  0.00  0.00     0.093 C 
ATOM     18  C           0     131.084 136.775 133.232  0.00  0.00     0.209 C 
ATOM     19  H           0     133.631 132.467 133.854  0.00  0.00     0.178 HD
ATOM     20  H           0     130.057 132.570 134.447  0.00  0.00     0.178 HD
ATOM     21  H           0     130.096 135.030 131.212  0.00  0.00     0.180 HD
ENDROOT
BRANCH   6  22
ATOM     22  C           0     133.165 134.971 135.631  0.00  0.00     0.208 C 
BRANCH  22  23
ATOM     23  O           0     132.559 135.148 136.938  0.00  0.00    -0.302 OA
BRANCH  23  24
ATOM     24  C           0     133.266 134.873 138.051  0.00  0.00     0.360 C 
ATOM     25  N           0     132.626 134.577 139.199  0.00  0.00    -0.337 N 
ATOM     26  H           0     131.656 134.561 139.224  0.00  0.00     0.164 HD
ATOM     27  O           0     134.480 134.893 138.020  0.00  0.00    -0.239 OA
BRANCH  25  28
ATOM     28  C           0     133.394 134.278 140.410  0.00  0.00     0.125 C 
BRANCH  28  29
ATOM     29  C           0     132.668 133.205 141.224  0.00  0.00     0.020 C 
BRANCH  29  30
ATOM     30  C           0     133.696 132.278 141.877  0.00  0.00     0.002 C 
BRANCH  30  31
ATOM     31  C           0     134.848 133.111 142.440  0.00  0.00     0.000 C 
BRANCH  31  32
ATOM     32  C           0     134.823 133.049 143.969  0.00  0.00    -0.000 C 
BRANCH  32  33
ATOM     33  C           0     135.275 134.394 144.542  0.00  0.00    -0.005 C 
ATOM     34  C           0     135.332 135.432 143.420  0.00  0.00     0.005 C 
ENDBRANCH  32  33
ENDBRANCH  31  32
ENDBRANCH  30  31
ENDBRANCH  29  30
ENDBRANCH  28  29
ENDBRANCH  25  28
ENDBRANCH  23  24
ENDBRANCH  22  23
ENDBRANCH   6  22
BRANCH  18  35
ATOM     35  O           0     129.732 137.138 132.948  0.00  0.00    -0.362 OA
ATOM     36  H           0     129.499 137.849 133.560  0.00  0.00     0.213 HD
ENDBRANCH  18  35
BRANCH  18  37
ATOM     37  O           0     131.431 137.147 134.567  0.00  0.00    -0.362 OA
ATOM     38  H           0     131.154 136.420 135.141  0.00  0.00     0.213 HD
ENDBRANCH  18  37
TORSDOF 11
ENDMDL
MODEL 9
REMARK VINA RESULT:      -6.9     11.513     15.120
REMARK  11 active torsions:
REMARK  status: ('A' for Active; 'I' for Inactive)
REMARK    1  A    between atoms: C_6  and  C_7 
REMARK    2  A    between atoms: C_7  and  O_8 
REMARK    3  A    between atoms: O_8  and  C_9 
REMARK       I    between atoms: C_9  and  N_10 
REMARK    4  A    between atoms: N_10  and  C_11 
REMARK    5  A    between atoms: C_11  and  C_12 
REMARK    6  A    between atoms: C_12  and  C_13 
REMARK    7  A    between atoms: C_13  and  C_14 
REMARK    8  A    between atoms: C_14  and  C_15 
REMARK    9  A    between atoms: C_15  and  C_16 
REMARK   10  A    between atoms: C_30  and  O_31 
REMARK   11  A    between atoms: C_30  and  O_32 
ROOT
ATOM      1  N           0     134.219 132.461 150.207  0.00  0.00    -0.235 N 
ATOM      2  H           0     133.799 133.294 149.943  0.00  0.00     0.174 HD
ATOM      3  H           0     134.371 132.271 151.145  0.00  0.00     0.174 HD
ATOM      4  C           0     134.577 131.596 149.300  0.00  0.00     0.672 C 
ATOM      5  N           0     134.377 131.820 147.949  0.00  0.00    -0.218 N 
ATOM      6  C           0     135.295 131.194 147.001  0.00  0.00     0.151 C 
ATOM      7  C           0     135.455 129.704 147.239  0.00  0.00     0.180 C 
ATOM      8  N           0     134.266 128.998 146.716  0.00  0.00    -0.216 N 
ATOM      9  C           0     133.956 127.996 147.604  0.00  0.00     0.670 C 
ATOM     10  N           0     133.218 126.963 147.312  0.00  0.00    -0.235 N 
ATOM     11  H           0     132.849 126.866 146.419  0.00  0.00     0.174 HD
ATOM     12  H           0     133.037 126.289 147.986  0.00  0.00     0.174 HD
ATOM     13  C           0     135.498 129.311 148.707  0.00  0.00     0.217 C 
ATOM     14  N           0     134.519 128.219 148.835  0.00  0.00    -0.191 N 
ATOM     15  N           0     135.180 130.409 149.622  0.00  0.00    -0.183 N 
ATOM     16  C           0     135.698 129.983 150.935  0.00  0.00     0.150 C 
ATOM     17  C           0     137.029 129.264 150.608  0.00  0.00     0.093 C 
ATOM     18  C           0     136.892 128.817 149.130  0.00  0.00     0.209 C 
ATOM     19  H           0     133.647 132.378 147.640  0.00  0.00     0.178 HD
ATOM     20  H           0     133.791 129.205 145.896  0.00  0.00     0.178 HD
ATOM     21  H           0     134.311 127.735 149.650  0.00  0.00     0.180 HD
ENDROOT
BRANCH   6  22
ATOM     22  C           0     136.665 131.861 147.125  0.00  0.00     0.208 C 
BRANCH  22  23
ATOM     23  O           0     137.574 131.286 146.150  0.00  0.00    -0.302 OA
BRANCH  23  24
ATOM     24  C           0     137.960 132.008 145.080  0.00  0.00     0.360 C 
ATOM     25  N           0     137.042 132.444 144.195  0.00  0.00    -0.337 N 
ATOM     26  H           0     136.104 132.237 144.328  0.00  0.00     0.164 HD
ATOM     27  O           0     139.135 132.268 144.914  0.00  0.00    -0.239 OA
BRANCH  25  28
ATOM     28  C           0     137.461 133.229 143.031  0.00  0.00     0.125 C 
BRANCH  28  29
ATOM     29  C           0     137.159 134.709 143.279  0.00  0.00     0.020 C 
BRANCH  29  30
ATOM     30  C           0     135.855 134.838 144.069  0.00  0.00     0.002 C 
BRANCH  30  31
ATOM     31  C           0     134.858 135.682 143.272  0.00  0.00     0.000 C 
BRANCH  31  32
ATOM     32  C           0     134.078 134.780 142.313  0.00  0.00    -0.000 C 
BRANCH  32  33
ATOM     33  C           0     133.783 133.443 142.996  0.00  0.00    -0.005 C 
ATOM     34  C           0     134.001 132.303 141.999  0.00  0.00     0.005 C 
ENDBRANCH  32  33
ENDBRANCH  31  32
ENDBRANCH  30  31
ENDBRANCH  29  30
ENDBRANCH  28  29
ENDBRANCH  25  28
ENDBRANCH  23  24
ENDBRANCH  22  23
ENDBRANCH   6  22
BRANCH  18  35
ATOM     35  O           0     136.973 127.394 149.030  0.00  0.00    -0.362 OA
ATOM     36  H           0     136.244 127.112 148.461  0.00  0.00     0.213 HD
ENDBRANCH  18  35
BRANCH  18  37
ATOM     37  O           0     137.901 129.433 148.328  0.00  0.00    -0.362 OA
ATOM     38  H           0     137.495 129.634 147.474  0.00  0.00     0.213 HD
ENDBRANCH  18  37
TORSDOF 11
ENDMDL
