# created with PyMOL 2.3.4
@<TRIPOS>MOLECULE
ligand_out_0001
38 40 1                 
SMALL
USER_CHARGES
@<TRIPOS>ATOM
1	   N	131.359	136.848	132.090	N.3	1	UNK0	-0.235	
2	   N	130.353	135.433	133.678	N.3	1	UNK0	-0.218	
3	   N	131.455	134.448	136.381	N.3	1	UNK0	-0.216	
4	   N	132.952	135.328	137.987	N.3	1	UNK0	-0.235	
5	   N	133.470	135.230	135.682	N.3	1	UNK0	-0.191	
6	   N	132.669	135.424	133.407	N.3	1	UNK0	-0.183	
7	   N	130.023	129.464	133.311	N.pl3	1	UNK0	-0.337	
8	   C	131.460	135.940	133.020	C.3	1	UNK0	0.672	
9	   C	130.424	134.071	134.201	C.3	1	UNK0	0.151	
10	   C	131.657	133.835	135.052	C.3	1	UNK0	0.180	
11	   C	132.645	135.022	136.759	C.3	1	UNK0	0.670	
12	   C	132.913	134.510	134.525	C.3	1	UNK0	0.217	
13	   C	133.982	135.614	132.766	C.3	1	UNK0	0.150	
14	   C	134.647	134.219	132.832	C.3	1	UNK0	0.093	
15	   C	133.938	133.490	134.001	C.3	1	UNK0	0.209	
16	   C	130.441	133.090	133.027	C.2	1	UNK0	0.208	
17	   C	129.860	130.740	132.910	C.2	1	UNK0	0.360	
18	   C	129.300	128.384	132.633	C.3	1	UNK0	0.125	
19	   C	130.226	127.709	131.619	C.3	1	UNK0	0.020	
20	   C	130.390	126.232	131.984	C.3	1	UNK0	0.002	
21	   C	131.639	126.057	132.850	C.3	1	UNK0	0.000	
22	   C	132.772	126.921	132.293	C.3	1	UNK0	-0.000	
23	   C	134.110	126.426	132.845	C.3	1	UNK0	-0.005	
24	   C	134.886	125.712	131.737	C.3	1	UNK0	0.005	
25	   O	130.524	131.732	133.533	O.2	1	UNK0	-0.302	
26	   O	129.112	130.995	131.986	O.co2	1	UNK0	-0.239	
27	   O	134.879	133.153	135.023	O.2	1	UNK0	-0.362	
28	   O	133.274	132.317	133.527	O.2	1	UNK0	-0.362	
29	   H	130.487	137.188	131.838	 H	1	UNK0	0.174	
30	   H	132.156	137.185	131.653	 H	1	UNK0	0.174	
31	   H	132.321	135.154	138.703	 H	1	UNK0	0.174	
32	   H	133.812	135.732	138.186	 H	1	UNK0	0.174	
33	   H	129.551	135.967	133.787	 H	1	UNK0	0.178	
34	   H	130.631	134.447	136.894	 H	1	UNK0	0.178	
35	   H	134.283	135.759	135.684	 H	1	UNK0	0.180	
36	   H	130.619	129.260	134.048	 H	1	UNK0	0.164	
37	   H	135.391	133.952	135.205	 H	1	UNK0	0.213	
38	   H	133.336	131.657	134.230	 H	1	UNK0	0.213	
@<TRIPOS>BOND
1 1 8 1
2 1 29 1
3 1 30 1
4 2 9 1
5 2 33 1
6 3 11 1
7 3 34 1
8 4 31 1
9 4 32 1
10 5 35 1
11 6 13 1
12 7 18 1
13 7 36 1
14 2 8 1
15 6 8 1
16 9 10 1
17 9 16 1
18 3 10 1
19 10 12 1
20 4 11 1
21 5 11 1
22 5 12 1
23 6 12 1
24 12 15 1
25 13 14 1
26 14 15 1
27 15 27 2
28 15 28 2
29 16 25 2
30 7 17 1
31 17 26 2
32 18 19 1
33 19 20 1
34 20 21 1
35 21 22 1
36 22 23 1
37 23 24 1
38 17 25 2
39 27 37 1
40 28 38 1
@<TRIPOS>SUBSTRUCTURE
1	UNK0	1	GROUP	1 ****	UNK
