# created with PyMOL 2.3.4
@<TRIPOS>MOLECULE
ligand_out_0001
78 83 1                 
SMALL
USER_CHARGES
@<TRIPOS>ATOM
1	   N	137.158	132.507	144.587	N.pl3	1	UNK0	-0.281	
2	   N	137.686	129.135	147.575	N.pl3	1	UNK0	-0.359	
3	   N	135.213	129.105	149.655	N.pl3	1	UNK0	-0.335	
4	   N	135.553	132.355	148.498	N.3	1	UNK0	-0.218	
5	   N	137.269	133.283	149.812	N.3	1	UNK0	-0.235	
6	   N	135.242	134.419	149.535	N.3	1	UNK0	-0.183	
7	   N	134.051	135.687	147.853	N.3	1	UNK0	-0.191	
8	   N	133.428	133.783	146.782	N.3	1	UNK0	-0.216	
9	   N	133.345	135.830	145.600	N.3	1	UNK0	-0.235	
10	   N	131.325	133.902	135.112	N.pl3	1	UNK0	-0.360	
11	   N	129.473	131.621	132.862	N.pl3	1	UNK0	-0.360	
12	   N	132.828	129.291	133.122	N.pl3	1	UNK0	-0.335	
13	   N	135.061	129.151	132.907	N.pl3	1	UNK0	-0.336	
14	   C	137.739	132.895	143.438	C.2	1	UNK0	0.251	
15	   C	136.699	132.967	142.389	C.3	1	UNK0	0.087	
16	   C	135.539	132.616	142.968	C.3	1	UNK0	0.015	
17	   C	135.842	132.316	144.384	C.2	1	UNK0	0.256	
18	   C	137.852	132.319	145.863	C.3	1	UNK0	0.145	
19	   C	138.364	130.880	145.957	C.3	1	UNK0	0.123	
20	   C	138.179	130.372	147.365	C.2	1	UNK0	0.219	
21	   C	137.505	128.642	148.943	C.3	1	UNK0	0.142	
22	   C	136.092	128.076	149.098	C.3	1	UNK0	0.144	
23	   C	133.982	129.294	149.136	C.2	1	UNK0	0.360	
24	   C	133.664	131.595	149.830	C.2	1	UNK0	0.208	
25	   C	134.105	132.163	148.479	C.3	1	UNK0	0.151	
26	   C	136.070	133.353	149.303	C.3	1	UNK0	0.672	
27	   C	133.941	134.669	148.911	C.3	1	UNK0	0.217	
28	   C	135.429	135.521	150.497	C.3	1	UNK0	0.150	
29	   C	133.347	133.450	148.221	C.3	1	UNK0	0.180	
30	   C	133.037	135.186	150.043	C.3	1	UNK0	0.209	
31	   C	133.593	135.142	146.680	C.3	1	UNK0	0.670	
32	   C	134.022	135.750	151.098	C.3	1	UNK0	0.093	
33	   C	134.189	132.538	142.302	C.3	1	UNK0	0.044	
34	   C	133.765	133.936	141.845	C.3	1	UNK0	0.005	
35	   C	133.088	133.841	140.476	C.3	1	UNK0	0.000	
36	   C	133.546	135.007	139.598	C.3	1	UNK0	0.000	
37	   C	132.818	134.950	138.254	C.3	1	UNK0	0.000	
38	   C	133.781	135.354	137.135	C.3	1	UNK0	0.009	
39	   C	132.995	135.574	135.841	C.3	1	UNK0	0.103	
40	   C	132.622	134.241	135.247	C.2	1	UNK0	0.217	
41	   C	130.962	132.605	134.534	C.3	1	UNK0	0.142	
42	   C	130.235	132.824	133.207	C.3	1	UNK0	0.142	
43	   C	129.904	130.810	131.875	C.2	1	UNK0	0.217	
44	   C	129.121	129.572	131.521	C.3	1	UNK0	0.103	
45	   C	129.136	128.603	132.705	C.3	1	UNK0	0.009	
46	   C	129.847	127.311	132.296	C.3	1	UNK0	0.002	
47	   C	131.191	127.217	133.023	C.3	1	UNK0	0.017	
48	   C	132.324	127.167	131.996	C.3	1	UNK0	0.072	
49	   C	133.021	128.539	131.872	C.3	1	UNK0	0.123	
50	   C	134.543	128.444	131.725	C.3	1	UNK0	0.119	
51	   C	135.077	126.995	131.730	C.3	1	UNK0	0.101	
52	   C	134.029	129.594	133.638	C.2	1	UNK0	0.316	
53	   O	135.039	131.963	145.224	O.2	1	UNK0	-0.267	
54	   O	138.918	133.144	143.287	O.2	1	UNK0	-0.268	
55	   O	138.473	131.076	148.307	O.2	1	UNK0	-0.274	
56	   O	133.604	128.609	148.207	O.co2	1	UNK0	-0.239	
57	   O	133.174	130.240	149.648	O.2	1	UNK0	-0.302	
58	   O	132.173	136.220	149.565	O.2	1	UNK0	-0.362	
59	   O	132.273	134.114	150.598	O.2	1	UNK0	-0.362	
60	   O	133.490	133.472	134.889	O.2	1	UNK0	-0.274	
61	   O	130.923	131.076	131.273	O.2	1	UNK0	-0.274	
62	   O	134.168	130.215	134.674	O.2	1	UNK0	-0.247	
63	   S	133.711	126.105	132.592	S.3	1	UNK0	-0.160	
64	   H	137.451	128.572	146.821	 H	1	UNK0	0.162	
65	   H	135.515	129.652	150.397	 H	1	UNK0	0.164	
66	   H	136.136	131.797	147.959	 H	1	UNK0	0.178	
67	   H	137.828	132.512	149.631	 H	1	UNK0	0.174	
68	   H	137.602	134.004	150.370	 H	1	UNK0	0.174	
69	   H	133.374	133.154	146.046	 H	1	UNK0	0.178	
70	   H	133.022	135.382	144.803	 H	1	UNK0	0.174	
71	   H	133.483	136.790	145.595	 H	1	UNK0	0.174	
72	   H	134.386	136.591	147.966	 H	1	UNK0	0.180	
73	   H	131.393	135.783	149.196	 H	1	UNK0	0.213	
74	   H	132.265	134.244	151.556	 H	1	UNK0	0.213	
75	   H	130.631	134.516	135.398	 H	1	UNK0	0.162	
76	   H	128.659	131.408	133.344	 H	1	UNK0	0.162	
77	   H	135.999	129.276	133.123	 H	1	UNK0	0.164	
78	   H	131.972	129.528	133.510	 H	1	UNK0	0.164	
@<TRIPOS>BOND
1 1 14 1
2 1 17 1
3 1 18 1
4 2 21 1
5 2 64 1
6 3 23 1
7 3 65 1
8 4 26 1
9 4 66 1
10 5 67 1
11 5 68 1
12 6 27 1
13 6 28 1
14 7 31 1
15 7 72 1
16 8 31 1
17 8 69 1
18 9 70 1
19 9 71 1
20 10 41 1
21 10 75 1
22 11 43 1
23 11 76 1
24 12 52 1
25 12 78 1
26 13 52 1
27 13 77 1
28 14 15 1
29 14 54 2
30 15 16 1
31 16 17 1
32 16 33 1
33 17 53 2
34 18 19 1
35 19 20 1
36 2 20 1
37 20 55 2
38 21 22 1
39 3 22 1
40 23 56 2
41 23 57 2
42 24 25 1
43 4 25 1
44 25 29 1
45 5 26 1
46 6 26 1
47 7 27 1
48 27 29 1
49 27 30 1
50 28 32 1
51 8 29 1
52 30 32 1
53 30 58 2
54 30 59 2
55 9 31 1
56 33 34 1
57 34 35 1
58 35 36 1
59 36 37 1
60 37 38 1
61 38 39 1
62 39 40 1
63 10 40 1
64 40 60 2
65 41 42 1
66 11 42 1
67 43 44 1
68 43 61 2
69 44 45 1
70 45 46 1
71 46 47 1
72 47 48 1
73 48 49 1
74 48 63 1
75 12 49 1
76 49 50 1
77 13 50 1
78 50 51 1
79 51 63 1
80 52 62 2
81 24 57 2
82 58 73 1
83 59 74 1
@<TRIPOS>SUBSTRUCTURE
1	UNK0	1	GROUP	1 ****	UNK
