MODEL 1
REMARK VINA RESULT:      -8.0      0.000      0.000
REMARK  27 active torsions:
REMARK  status: ('A' for Active; 'I' for Inactive)
REMARK    1  A    between atoms: C_6  and  C_7 
REMARK    2  A    between atoms: C_7  and  O_8 
REMARK    3  A    between atoms: O_8  and  C_9 
REMARK       I    between atoms: C_9  and  N_10 
REMARK    4  A    between atoms: N_10  and  C_11 
REMARK    5  A    between atoms: C_11  and  C_12 
REMARK    6  A    between atoms: C_12  and  N_13 
REMARK       I    between atoms: N_13  and  C_14 
REMARK    7  A    between atoms: C_14  and  C_15 
REMARK    8  A    between atoms: C_15  and  C_16 
REMARK    9  A    between atoms: C_16  and  N_17 
REMARK   10  A    between atoms: C_20  and  C_21 
REMARK   11  A    between atoms: C_21  and  C_22 
REMARK   12  A    between atoms: C_22  and  C_23 
REMARK   13  A    between atoms: C_23  and  C_24 
REMARK   14  A    between atoms: C_24  and  C_25 
REMARK   15  A    between atoms: C_25  and  C_26 
REMARK   16  A    between atoms: C_26  and  C_27 
REMARK   17  A    between atoms: C_27  and  C_28 
REMARK       I    between atoms: C_28  and  N_29 
REMARK   18  A    between atoms: N_29  and  C_30 
REMARK   19  A    between atoms: C_30  and  C_31 
REMARK   20  A    between atoms: C_31  and  N_32 
REMARK       I    between atoms: N_32  and  C_33 
REMARK   21  A    between atoms: C_33  and  C_34 
REMARK   22  A    between atoms: C_34  and  C_35 
REMARK   23  A    between atoms: C_35  and  C_36 
REMARK   24  A    between atoms: C_36  and  C_37 
REMARK   25  A    between atoms: C_37  and  C_38 
REMARK   26  A    between atoms: C_65  and  O_66 
REMARK   27  A    between atoms: C_65  and  O_67 
ROOT
ATOM      1  N           0     137.158 132.507 144.587  0.00  0.00    -0.281 N 
ATOM      2  C           0     137.739 132.895 143.438  0.00  0.00     0.251 A 
ATOM      3  C           0     136.699 132.967 142.389  0.00  0.00     0.087 A 
ATOM      4  C           0     135.539 132.616 142.968  0.00  0.00     0.015 A 
ATOM      5  C           0     135.842 132.316 144.384  0.00  0.00     0.256 A 
ATOM      6  O           0     135.039 131.963 145.224  0.00  0.00    -0.267 OA
ATOM      7  O           0     138.918 133.144 143.287  0.00  0.00    -0.268 OA
ENDROOT
BRANCH   1   8
ATOM      8  C           0     137.852 132.319 145.863  0.00  0.00     0.145 C 
BRANCH   8   9
ATOM      9  C           0     138.364 130.880 145.957  0.00  0.00     0.123 C 
BRANCH   9  10
ATOM     10  C           0     138.179 130.372 147.365  0.00  0.00     0.219 C 
ATOM     11  N           0     137.686 129.135 147.575  0.00  0.00    -0.359 N 
ATOM     12  H           0     137.451 128.572 146.821  0.00  0.00     0.162 HD
ATOM     13  O           0     138.473 131.076 148.307  0.00  0.00    -0.274 OA
BRANCH  11  14
ATOM     14  C           0     137.505 128.642 148.943  0.00  0.00     0.142 C 
BRANCH  14  15
ATOM     15  C           0     136.092 128.076 149.098  0.00  0.00     0.144 C 
BRANCH  15  16
ATOM     16  N           0     135.213 129.105 149.655  0.00  0.00    -0.335 N 
ATOM     17  C           0     133.982 129.294 149.136  0.00  0.00     0.360 C 
ATOM     18  O           0     133.604 128.609 148.207  0.00  0.00    -0.239 OA
ATOM     19  H           0     135.515 129.652 150.397  0.00  0.00     0.164 HD
BRANCH  17  20
ATOM     20  O           0     133.174 130.240 149.648  0.00  0.00    -0.302 OA
BRANCH  20  21
ATOM     21  C           0     133.664 131.595 149.830  0.00  0.00     0.208 C 
BRANCH  21  22
ATOM     22  C           0     134.105 132.163 148.479  0.00  0.00     0.151 C 
ATOM     23  N           0     135.553 132.355 148.498  0.00  0.00    -0.218 N 
ATOM     24  C           0     136.070 133.353 149.303  0.00  0.00     0.672 C 
ATOM     25  H           0     136.136 131.797 147.959  0.00  0.00     0.178 HD
ATOM     26  N           0     137.269 133.283 149.812  0.00  0.00    -0.235 N 
ATOM     27  N           0     135.242 134.419 149.535  0.00  0.00    -0.183 N 
ATOM     28  H           0     137.828 132.512 149.631  0.00  0.00     0.174 HD
ATOM     29  H           0     137.602 134.004 150.370  0.00  0.00     0.174 HD
ATOM     30  C           0     133.941 134.669 148.911  0.00  0.00     0.217 C 
ATOM     31  C           0     135.429 135.521 150.497  0.00  0.00     0.150 C 
ATOM     32  C           0     133.347 133.450 148.221  0.00  0.00     0.180 C 
ATOM     33  C           0     133.037 135.186 150.043  0.00  0.00     0.209 C 
ATOM     34  N           0     134.051 135.687 147.853  0.00  0.00    -0.191 N 
ATOM     35  N           0     133.428 133.783 146.782  0.00  0.00    -0.216 N 
ATOM     36  C           0     133.593 135.142 146.680  0.00  0.00     0.670 C 
ATOM     37  H           0     133.374 133.154 146.046  0.00  0.00     0.178 HD
ATOM     38  N           0     133.345 135.830 145.600  0.00  0.00    -0.235 N 
ATOM     39  H           0     133.022 135.382 144.803  0.00  0.00     0.174 HD
ATOM     40  H           0     133.483 136.790 145.595  0.00  0.00     0.174 HD
ATOM     41  C           0     134.022 135.750 151.098  0.00  0.00     0.093 C 
ATOM     42  H           0     134.386 136.591 147.966  0.00  0.00     0.180 HD
BRANCH  33  43
ATOM     43  O           0     132.173 136.220 149.565  0.00  0.00    -0.362 OA
ATOM     44  H           0     131.393 135.783 149.196  0.00  0.00     0.213 HD
ENDBRANCH  33  43
BRANCH  33  45
ATOM     45  O           0     132.273 134.114 150.598  0.00  0.00    -0.362 OA
ATOM     46  H           0     132.265 134.244 151.556  0.00  0.00     0.213 HD
ENDBRANCH  33  45
ENDBRANCH  21  22
ENDBRANCH  20  21
ENDBRANCH  17  20
ENDBRANCH  15  16
ENDBRANCH  14  15
ENDBRANCH  11  14
ENDBRANCH   9  10
ENDBRANCH   8   9
ENDBRANCH   1   8
BRANCH   4  47
ATOM     47  C           0     134.189 132.538 142.302  0.00  0.00     0.044 C 
BRANCH  47  48
ATOM     48  C           0     133.765 133.936 141.845  0.00  0.00     0.005 C 
BRANCH  48  49
ATOM     49  C           0     133.088 133.841 140.476  0.00  0.00     0.000 C 
BRANCH  49  50
ATOM     50  C           0     133.546 135.007 139.598  0.00  0.00     0.000 C 
BRANCH  50  51
ATOM     51  C           0     132.818 134.950 138.254  0.00  0.00     0.000 C 
BRANCH  51  52
ATOM     52  C           0     133.781 135.354 137.135  0.00  0.00     0.009 C 
BRANCH  52  53
ATOM     53  C           0     132.995 135.574 135.841  0.00  0.00     0.103 C 
BRANCH  53  54
ATOM     54  C           0     132.622 134.241 135.247  0.00  0.00     0.217 C 
ATOM     55  N           0     131.325 133.902 135.112  0.00  0.00    -0.360 N 
ATOM     56  H           0     130.631 134.516 135.398  0.00  0.00     0.162 HD
ATOM     57  O           0     133.490 133.472 134.889  0.00  0.00    -0.274 OA
BRANCH  55  58
ATOM     58  C           0     130.962 132.605 134.534  0.00  0.00     0.142 C 
BRANCH  58  59
ATOM     59  C           0     130.235 132.824 133.207  0.00  0.00     0.142 C 
BRANCH  59  60
ATOM     60  N           0     129.473 131.621 132.862  0.00  0.00    -0.360 N 
ATOM     61  C           0     129.904 130.810 131.875  0.00  0.00     0.217 C 
ATOM     62  O           0     130.923 131.076 131.273  0.00  0.00    -0.274 OA
ATOM     63  H           0     128.659 131.408 133.344  0.00  0.00     0.162 HD
BRANCH  61  64
ATOM     64  C           0     129.121 129.572 131.521  0.00  0.00     0.103 C 
BRANCH  64  65
ATOM     65  C           0     129.136 128.603 132.705  0.00  0.00     0.009 C 
BRANCH  65  66
ATOM     66  C           0     129.847 127.311 132.296  0.00  0.00     0.002 C 
BRANCH  66  67
ATOM     67  C           0     131.191 127.217 133.023  0.00  0.00     0.017 C 
BRANCH  67  68
ATOM     68  C           0     132.324 127.167 131.996  0.00  0.00     0.072 C 
ATOM     69  C           0     133.021 128.539 131.872  0.00  0.00     0.123 A 
ATOM     70  C           0     134.543 128.444 131.725  0.00  0.00     0.119 A 
ATOM     71  N           0     132.828 129.291 133.122  0.00  0.00    -0.335 N 
ATOM     72  C           0     135.077 126.995 131.730  0.00  0.00     0.101 C 
ATOM     73  N           0     135.061 129.151 132.907  0.00  0.00    -0.336 N 
ATOM     74  S           0     133.711 126.105 132.592  0.00  0.00    -0.160 SA
ATOM     75  C           0     134.029 129.594 133.638  0.00  0.00     0.316 A 
ATOM     76  H           0     135.999 129.276 133.123  0.00  0.00     0.164 HD
ATOM     77  O           0     134.168 130.215 134.674  0.00  0.00    -0.247 OA
ATOM     78  H           0     131.972 129.528 133.510  0.00  0.00     0.164 HD
ENDBRANCH  67  68
ENDBRANCH  66  67
ENDBRANCH  65  66
ENDBRANCH  64  65
ENDBRANCH  61  64
ENDBRANCH  59  60
ENDBRANCH  58  59
ENDBRANCH  55  58
ENDBRANCH  53  54
ENDBRANCH  52  53
ENDBRANCH  51  52
ENDBRANCH  50  51
ENDBRANCH  49  50
ENDBRANCH  48  49
ENDBRANCH  47  48
ENDBRANCH   4  47
TORSDOF 27
ENDMDL
MODEL 2
REMARK VINA RESULT:      -7.8      1.362      2.278
REMARK  27 active torsions:
REMARK  status: ('A' for Active; 'I' for Inactive)
REMARK    1  A    between atoms: C_6  and  C_7 
REMARK    2  A    between atoms: C_7  and  O_8 
REMARK    3  A    between atoms: O_8  and  C_9 
REMARK       I    between atoms: C_9  and  N_10 
REMARK    4  A    between atoms: N_10  and  C_11 
REMARK    5  A    between atoms: C_11  and  C_12 
REMARK    6  A    between atoms: C_12  and  N_13 
REMARK       I    between atoms: N_13  and  C_14 
REMARK    7  A    between atoms: C_14  and  C_15 
REMARK    8  A    between atoms: C_15  and  C_16 
REMARK    9  A    between atoms: C_16  and  N_17 
REMARK   10  A    between atoms: C_20  and  C_21 
REMARK   11  A    between atoms: C_21  and  C_22 
REMARK   12  A    between atoms: C_22  and  C_23 
REMARK   13  A    between atoms: C_23  and  C_24 
REMARK   14  A    between atoms: C_24  and  C_25 
REMARK   15  A    between atoms: C_25  and  C_26 
REMARK   16  A    between atoms: C_26  and  C_27 
REMARK   17  A    between atoms: C_27  and  C_28 
REMARK       I    between atoms: C_28  and  N_29 
REMARK   18  A    between atoms: N_29  and  C_30 
REMARK   19  A    between atoms: C_30  and  C_31 
REMARK   20  A    between atoms: C_31  and  N_32 
REMARK       I    between atoms: N_32  and  C_33 
REMARK   21  A    between atoms: C_33  and  C_34 
REMARK   22  A    between atoms: C_34  and  C_35 
REMARK   23  A    between atoms: C_35  and  C_36 
REMARK   24  A    between atoms: C_36  and  C_37 
REMARK   25  A    between atoms: C_37  and  C_38 
REMARK   26  A    between atoms: C_65  and  O_66 
REMARK   27  A    between atoms: C_65  and  O_67 
ROOT
ATOM      1  N           0     138.588 132.484 145.665  0.00  0.00    -0.281 N 
ATOM      2  C           0     139.525 132.786 144.748  0.00  0.00     0.251 A 
ATOM      3  C           0     138.851 133.346 143.556  0.00  0.00     0.087 A 
ATOM      4  C           0     137.534 133.352 143.823  0.00  0.00     0.015 A 
ATOM      5  C           0     137.371 132.791 145.182  0.00  0.00     0.256 A 
ATOM      6  O           0     136.317 132.638 145.765  0.00  0.00    -0.267 OA
ATOM      7  O           0     140.722 132.624 144.877  0.00  0.00    -0.268 OA
ENDROOT
BRANCH   1   8
ATOM      8  C           0     138.853 131.907 146.985  0.00  0.00     0.145 C 
BRANCH   8   9
ATOM      9  C           0     138.827 130.380 146.889  0.00  0.00     0.123 C 
BRANCH   9  10
ATOM     10  C           0     138.201 129.809 148.136  0.00  0.00     0.219 C 
ATOM     11  N           0     137.717 128.551 148.131  0.00  0.00    -0.359 N 
ATOM     12  H           0     137.771 128.014 147.325  0.00  0.00     0.162 HD
ATOM     13  O           0     138.133 130.482 149.143  0.00  0.00    -0.274 OA
BRANCH  11  14
ATOM     14  C           0     137.108 127.997 149.343  0.00  0.00     0.142 C 
BRANCH  14  15
ATOM     15  C           0     135.604 127.821 149.123  0.00  0.00     0.144 C 
BRANCH  15  16
ATOM     16  N           0     134.891 128.970 149.685  0.00  0.00    -0.335 N 
ATOM     17  C           0     133.658 129.283 149.238  0.00  0.00     0.360 C 
ATOM     18  O           0     133.139 128.611 148.369  0.00  0.00    -0.239 OA
ATOM     19  H           0     135.305 129.506 150.380  0.00  0.00     0.164 HD
BRANCH  17  20
ATOM     20  O           0     133.002 130.338 149.755  0.00  0.00    -0.302 OA
BRANCH  20  21
ATOM     21  C           0     133.683 131.612 149.908  0.00  0.00     0.208 C 
BRANCH  21  22
ATOM     22  C           0     134.192 132.086 148.545  0.00  0.00     0.151 C 
ATOM     23  N           0     135.637 132.282 148.624  0.00  0.00    -0.218 N 
ATOM     24  C           0     136.114 133.336 149.382  0.00  0.00     0.672 C 
ATOM     25  H           0     136.245 131.690 148.155  0.00  0.00     0.178 HD
ATOM     26  N           0     137.286 133.304 149.954  0.00  0.00    -0.235 N 
ATOM     27  N           0     135.276 134.413 149.498  0.00  0.00    -0.183 N 
ATOM     28  H           0     137.852 132.523 149.856  0.00  0.00     0.174 HD
ATOM     29  H           0     137.591 134.062 150.477  0.00  0.00     0.174 HD
ATOM     30  C           0     134.009 134.616 148.793  0.00  0.00     0.217 C 
ATOM     31  C           0     135.416 135.579 150.388  0.00  0.00     0.150 C 
ATOM     32  C           0     133.449 133.351 148.161  0.00  0.00     0.180 C 
ATOM     33  C           0     133.050 135.208 149.840  0.00  0.00     0.209 C 
ATOM     34  N           0     134.173 135.558 147.674  0.00  0.00    -0.191 N 
ATOM     35  N           0     133.603 133.583 146.708  0.00  0.00    -0.216 N 
ATOM     36  C           0     133.774 134.932 146.520  0.00  0.00     0.670 C 
ATOM     37  H           0     133.585 132.904 146.015  0.00  0.00     0.178 HD
ATOM     38  N           0     133.581 135.542 145.384  0.00  0.00    -0.235 N 
ATOM     39  H           0     133.298 135.039 144.605  0.00  0.00     0.174 HD
ATOM     40  H           0     133.721 136.501 145.319  0.00  0.00     0.174 HD
ATOM     41  C           0     133.982 135.846 150.901  0.00  0.00     0.093 C 
ATOM     42  H           0     134.504 136.468 147.741  0.00  0.00     0.180 HD
BRANCH  33  43
ATOM     43  O           0     132.212 136.204 149.248  0.00  0.00    -0.362 OA
ATOM     44  H           0     132.594 137.062 149.479  0.00  0.00     0.213 HD
ENDBRANCH  33  43
BRANCH  33  45
ATOM     45  O           0     132.258 134.175 150.430  0.00  0.00    -0.362 OA
ATOM     46  H           0     131.525 134.611 150.884  0.00  0.00     0.213 HD
ENDBRANCH  33  45
ENDBRANCH  21  22
ENDBRANCH  20  21
ENDBRANCH  17  20
ENDBRANCH  15  16
ENDBRANCH  14  15
ENDBRANCH  11  14
ENDBRANCH   9  10
ENDBRANCH   8   9
ENDBRANCH   1   8
BRANCH   4  47
ATOM     47  C           0     136.435 133.834 142.912  0.00  0.00     0.044 C 
BRANCH  47  48
ATOM     48  C           0     135.874 132.650 142.120  0.00  0.00     0.005 C 
BRANCH  48  49
ATOM     49  C           0     134.387 132.481 142.441  0.00  0.00     0.000 C 
BRANCH  49  50
ATOM     50  C           0     133.588 133.592 141.758  0.00  0.00     0.000 C 
BRANCH  50  51
ATOM     51  C           0     132.366 132.988 141.064  0.00  0.00     0.000 C 
BRANCH  51  52
ATOM     52  C           0     132.098 133.740 139.759  0.00  0.00     0.009 C 
BRANCH  52  53
ATOM     53  C           0     133.185 134.796 139.545  0.00  0.00     0.103 C 
BRANCH  53  54
ATOM     54  C           0     133.436 134.968 138.070  0.00  0.00     0.217 C 
ATOM     55  N           0     132.406 135.205 137.234  0.00  0.00    -0.360 N 
ATOM     56  H           0     131.502 135.265 137.582  0.00  0.00     0.162 HD
ATOM     57  O           0     134.566 134.892 137.633  0.00  0.00    -0.274 OA
BRANCH  55  58
ATOM     58  C           0     132.650 135.372 135.798  0.00  0.00     0.142 C 
BRANCH  58  59
ATOM     59  C           0     131.314 135.518 135.068  0.00  0.00     0.142 C 
BRANCH  59  60
ATOM     60  N           0     131.266 134.580 133.943  0.00  0.00    -0.360 N 
ATOM     61  C           0     130.119 134.406 133.258  0.00  0.00     0.217 C 
ATOM     62  O           0     129.125 135.027 133.572  0.00  0.00    -0.274 OA
ATOM     63  H           0     132.061 134.084 133.693  0.00  0.00     0.162 HD
BRANCH  61  64
ATOM     64  C           0     130.071 133.442 132.102  0.00  0.00     0.103 C 
BRANCH  64  65
ATOM     65  C           0     128.675 132.821 132.012  0.00  0.00     0.009 C 
BRANCH  65  66
ATOM     66  C           0     128.776 131.428 131.390  0.00  0.00     0.002 C 
BRANCH  66  67
ATOM     67  C           0     129.381 130.458 132.407  0.00  0.00     0.017 C 
BRANCH  67  68
ATOM     68  C           0     130.271 129.446 131.682  0.00  0.00     0.072 C 
ATOM     69  C           0     131.759 129.840 131.789  0.00  0.00     0.123 A 
ATOM     70  C           0     132.696 128.647 132.009  0.00  0.00     0.119 A 
ATOM     71  N           0     131.952 130.671 132.988  0.00  0.00    -0.335 N 
ATOM     72  C           0     131.965 127.289 132.078  0.00  0.00     0.101 C 
ATOM     73  N           0     133.325 128.922 133.311  0.00  0.00    -0.336 N 
ATOM     74  S           0     130.260 127.816 132.547  0.00  0.00    -0.160 SA
ATOM     75  C           0     132.849 130.079 133.790  0.00  0.00     0.316 A 
ATOM     76  H           0     133.979 128.356 133.751  0.00  0.00     0.164 HD
ATOM     77  O           0     133.198 130.549 134.856  0.00  0.00    -0.247 OA
ATOM     78  H           0     131.502 131.511 133.169  0.00  0.00     0.164 HD
ENDBRANCH  67  68
ENDBRANCH  66  67
ENDBRANCH  65  66
ENDBRANCH  64  65
ENDBRANCH  61  64
ENDBRANCH  59  60
ENDBRANCH  58  59
ENDBRANCH  55  58
ENDBRANCH  53  54
ENDBRANCH  52  53
ENDBRANCH  51  52
ENDBRANCH  50  51
ENDBRANCH  49  50
ENDBRANCH  48  49
ENDBRANCH  47  48
ENDBRANCH   4  47
TORSDOF 27
ENDMDL
MODEL 3
REMARK VINA RESULT:      -7.7      2.316      5.232
REMARK  27 active torsions:
REMARK  status: ('A' for Active; 'I' for Inactive)
REMARK    1  A    between atoms: C_6  and  C_7 
REMARK    2  A    between atoms: C_7  and  O_8 
REMARK    3  A    between atoms: O_8  and  C_9 
REMARK       I    between atoms: C_9  and  N_10 
REMARK    4  A    between atoms: N_10  and  C_11 
REMARK    5  A    between atoms: C_11  and  C_12 
REMARK    6  A    between atoms: C_12  and  N_13 
REMARK       I    between atoms: N_13  and  C_14 
REMARK    7  A    between atoms: C_14  and  C_15 
REMARK    8  A    between atoms: C_15  and  C_16 
REMARK    9  A    between atoms: C_16  and  N_17 
REMARK   10  A    between atoms: C_20  and  C_21 
REMARK   11  A    between atoms: C_21  and  C_22 
REMARK   12  A    between atoms: C_22  and  C_23 
REMARK   13  A    between atoms: C_23  and  C_24 
REMARK   14  A    between atoms: C_24  and  C_25 
REMARK   15  A    between atoms: C_25  and  C_26 
REMARK   16  A    between atoms: C_26  and  C_27 
REMARK   17  A    between atoms: C_27  and  C_28 
REMARK       I    between atoms: C_28  and  N_29 
REMARK   18  A    between atoms: N_29  and  C_30 
REMARK   19  A    between atoms: C_30  and  C_31 
REMARK   20  A    between atoms: C_31  and  N_32 
REMARK       I    between atoms: N_32  and  C_33 
REMARK   21  A    between atoms: C_33  and  C_34 
REMARK   22  A    between atoms: C_34  and  C_35 
REMARK   23  A    between atoms: C_35  and  C_36 
REMARK   24  A    between atoms: C_36  and  C_37 
REMARK   25  A    between atoms: C_37  and  C_38 
REMARK   26  A    between atoms: C_65  and  O_66 
REMARK   27  A    between atoms: C_65  and  O_67 
ROOT
ATOM      1  N           0     134.115 134.422 143.315  0.00  0.00    -0.281 N 
ATOM      2  C           0     133.951 133.271 142.637  0.00  0.00     0.251 A 
ATOM      3  C           0     133.690 133.598 141.218  0.00  0.00     0.087 A 
ATOM      4  C           0     133.712 134.937 141.118  0.00  0.00     0.015 A 
ATOM      5  C           0     133.981 135.463 142.474  0.00  0.00     0.256 A 
ATOM      6  O           0     134.073 136.635 142.776  0.00  0.00    -0.267 OA
ATOM      7  O           0     134.007 132.155 143.110  0.00  0.00    -0.268 OA
ENDROOT
BRANCH   1   8
ATOM      8  C           0     134.392 134.524 144.750  0.00  0.00     0.145 C 
BRANCH   8   9
ATOM      9  C           0     133.091 134.343 145.535  0.00  0.00     0.123 C 
BRANCH   9  10
ATOM     10  C           0     132.920 135.492 146.495  0.00  0.00     0.219 C 
ATOM     11  N           0     132.789 135.254 147.815  0.00  0.00    -0.359 N 
ATOM     12  H           0     132.804 134.343 148.147  0.00  0.00     0.162 HD
ATOM     13  O           0     132.900 136.632 146.079  0.00  0.00    -0.274 OA
BRANCH  11  14
ATOM     14  C           0     132.621 136.372 148.747  0.00  0.00     0.142 C 
BRANCH  14  15
ATOM     15  C           0     133.717 136.314 149.814  0.00  0.00     0.144 C 
BRANCH  15  16
ATOM     16  N           0     134.216 134.942 149.927  0.00  0.00    -0.335 N 
ATOM     17  C           0     135.461 134.640 149.508  0.00  0.00     0.360 C 
ATOM     18  O           0     136.169 135.508 149.037  0.00  0.00    -0.239 OA
ATOM     19  H           0     133.650 134.249 150.304  0.00  0.00     0.164 HD
BRANCH  17  20
ATOM     20  O           0     135.920 133.380 149.613  0.00  0.00    -0.302 OA
BRANCH  20  21
ATOM     21  C           0     135.002 132.294 149.910  0.00  0.00     0.208 C 
BRANCH  21  22
ATOM     22  C           0     134.315 131.839 148.621  0.00  0.00     0.151 C 
ATOM     23  N           0     133.347 130.795 148.946  0.00  0.00    -0.218 N 
ATOM     24  C           0     133.824 129.563 149.353  0.00  0.00     0.672 C 
ATOM     25  H           0     132.393 130.962 148.877  0.00  0.00     0.178 HD
ATOM     26  N           0     133.145 128.782 150.145  0.00  0.00    -0.235 N 
ATOM     27  N           0     135.060 129.216 148.873  0.00  0.00    -0.183 N 
ATOM     28  H           0     132.274 129.060 150.470  0.00  0.00     0.174 HD
ATOM     29  H           0     133.509 127.921 150.408  0.00  0.00     0.174 HD
ATOM     30  C           0     135.848 129.945 147.877  0.00  0.00     0.217 C 
ATOM     31  C           0     135.906 128.080 149.282  0.00  0.00     0.150 C 
ATOM     32  C           0     135.375 131.371 147.644  0.00  0.00     0.180 C 
ATOM     33  C           0     137.298 129.897 148.388  0.00  0.00     0.209 C 
ATOM     34  N           0     135.760 129.296 146.559  0.00  0.00    -0.191 N 
ATOM     35  N           0     134.798 131.335 146.282  0.00  0.00    -0.216 N 
ATOM     36  C           0     135.284 130.213 145.656  0.00  0.00     0.670 C 
ATOM     37  H           0     134.188 131.986 145.901  0.00  0.00     0.178 HD
ATOM     38  N           0     135.291 130.042 144.364  0.00  0.00    -0.235 N 
ATOM     39  H           0     134.939 130.732 143.781  0.00  0.00     0.174 HD
ATOM     40  H           0     135.650 129.223 143.986  0.00  0.00     0.174 HD
ATOM     41  C           0     137.339 128.661 149.323  0.00  0.00     0.093 C 
ATOM     42  H           0     136.002 128.377 146.360  0.00  0.00     0.180 HD
BRANCH  33  43
ATOM     43  O           0     138.210 129.729 147.300  0.00  0.00    -0.362 OA
ATOM     44  H           0     138.302 128.778 147.157  0.00  0.00     0.213 HD
ENDBRANCH  33  43
BRANCH  33  45
ATOM     45  O           0     137.606 131.085 149.120  0.00  0.00    -0.362 OA
ATOM     46  H           0     137.920 131.736 148.478  0.00  0.00     0.213 HD
ENDBRANCH  33  45
ENDBRANCH  21  22
ENDBRANCH  20  21
ENDBRANCH  17  20
ENDBRANCH  15  16
ENDBRANCH  14  15
ENDBRANCH  11  14
ENDBRANCH   9  10
ENDBRANCH   8   9
ENDBRANCH   1   8
BRANCH   4  47
ATOM     47  C           0     133.499 135.748 139.866  0.00  0.00     0.044 C 
BRANCH  47  48
ATOM     48  C           0     133.531 134.823 138.647  0.00  0.00     0.005 C 
BRANCH  48  49
ATOM     49  C           0     134.555 135.345 137.637  0.00  0.00     0.000 C 
BRANCH  49  50
ATOM     50  C           0     133.933 135.360 136.240  0.00  0.00     0.000 C 
BRANCH  50  51
ATOM     51  C           0     132.453 134.988 136.337  0.00  0.00     0.000 C 
BRANCH  51  52
ATOM     52  C           0     131.696 135.597 135.155  0.00  0.00     0.009 C 
BRANCH  52  53
ATOM     53  C           0     130.878 134.508 134.456  0.00  0.00     0.103 C 
BRANCH  53  54
ATOM     54  C           0     131.662 133.959 133.293  0.00  0.00     0.217 C 
ATOM     55  N           0     132.677 134.674 132.767  0.00  0.00    -0.360 N 
ATOM     56  H           0     132.903 135.541 133.137  0.00  0.00     0.162 HD
ATOM     57  O           0     131.380 132.874 132.829  0.00  0.00    -0.274 OA
BRANCH  55  58
ATOM     58  C           0     133.439 134.140 131.635  0.00  0.00     0.142 C 
BRANCH  58  59
ATOM     59  C           0     134.868 133.828 132.084  0.00  0.00     0.142 C 
BRANCH  59  60
ATOM     60  N           0     135.025 132.379 132.241  0.00  0.00    -0.360 N 
ATOM     61  C           0     134.859 131.810 133.451  0.00  0.00     0.217 C 
ATOM     62  O           0     134.579 132.497 134.411  0.00  0.00    -0.274 OA
ATOM     63  H           0     135.249 131.831 131.473  0.00  0.00     0.162 HD
BRANCH  61  64
ATOM     64  C           0     135.021 130.321 133.612  0.00  0.00     0.103 C 
BRANCH  64  65
ATOM     65  C           0     135.607 129.730 132.328  0.00  0.00     0.009 C 
BRANCH  65  66
ATOM     66  C           0     134.616 128.732 131.726  0.00  0.00     0.002 C 
BRANCH  66  67
ATOM     67  C           0     133.412 128.585 132.660  0.00  0.00     0.017 C 
BRANCH  67  68
ATOM     68  C           0     132.133 128.472 131.829  0.00  0.00     0.072 C 
ATOM     69  C           0     131.824 127.000 131.484  0.00  0.00     0.123 A 
ATOM     70  C           0     130.335 126.649 131.562  0.00  0.00     0.119 A 
ATOM     71  N           0     132.450 126.128 132.490  0.00  0.00    -0.335 N 
ATOM     72  C           0     129.438 127.838 131.970  0.00  0.00     0.101 C 
ATOM     73  N           0     130.266 125.614 132.606  0.00  0.00    -0.336 N 
ATOM     74  S           0     130.651 128.931 132.829  0.00  0.00    -0.160 SA
ATOM     75  C           0     131.499 125.383 133.074  0.00  0.00     0.316 A 
ATOM     76  H           0     129.456 125.171 132.908  0.00  0.00     0.164 HD
ATOM     77  O           0     131.736 124.572 133.948  0.00  0.00    -0.247 OA
ATOM     78  H           0     133.397 126.098 132.699  0.00  0.00     0.164 HD
ENDBRANCH  67  68
ENDBRANCH  66  67
ENDBRANCH  65  66
ENDBRANCH  64  65
ENDBRANCH  61  64
ENDBRANCH  59  60
ENDBRANCH  58  59
ENDBRANCH  55  58
ENDBRANCH  53  54
ENDBRANCH  52  53
ENDBRANCH  51  52
ENDBRANCH  50  51
ENDBRANCH  49  50
ENDBRANCH  48  49
ENDBRANCH  47  48
ENDBRANCH   4  47
TORSDOF 27
ENDMDL
MODEL 4
REMARK VINA RESULT:      -7.7      2.287      4.985
REMARK  27 active torsions:
REMARK  status: ('A' for Active; 'I' for Inactive)
REMARK    1  A    between atoms: C_6  and  C_7 
REMARK    2  A    between atoms: C_7  and  O_8 
REMARK    3  A    between atoms: O_8  and  C_9 
REMARK       I    between atoms: C_9  and  N_10 
REMARK    4  A    between atoms: N_10  and  C_11 
REMARK    5  A    between atoms: C_11  and  C_12 
REMARK    6  A    between atoms: C_12  and  N_13 
REMARK       I    between atoms: N_13  and  C_14 
REMARK    7  A    between atoms: C_14  and  C_15 
REMARK    8  A    between atoms: C_15  and  C_16 
REMARK    9  A    between atoms: C_16  and  N_17 
REMARK   10  A    between atoms: C_20  and  C_21 
REMARK   11  A    between atoms: C_21  and  C_22 
REMARK   12  A    between atoms: C_22  and  C_23 
REMARK   13  A    between atoms: C_23  and  C_24 
REMARK   14  A    between atoms: C_24  and  C_25 
REMARK   15  A    between atoms: C_25  and  C_26 
REMARK   16  A    between atoms: C_26  and  C_27 
REMARK   17  A    between atoms: C_27  and  C_28 
REMARK       I    between atoms: C_28  and  N_29 
REMARK   18  A    between atoms: N_29  and  C_30 
REMARK   19  A    between atoms: C_30  and  C_31 
REMARK   20  A    between atoms: C_31  and  N_32 
REMARK       I    between atoms: N_32  and  C_33 
REMARK   21  A    between atoms: C_33  and  C_34 
REMARK   22  A    between atoms: C_34  and  C_35 
REMARK   23  A    between atoms: C_35  and  C_36 
REMARK   24  A    between atoms: C_36  and  C_37 
REMARK   25  A    between atoms: C_37  and  C_38 
REMARK   26  A    between atoms: C_65  and  O_66 
REMARK   27  A    between atoms: C_65  and  O_67 
ROOT
ATOM      1  N           0     133.895 133.414 142.955  0.00  0.00    -0.281 N 
ATOM      2  C           0     133.705 132.474 142.011  0.00  0.00     0.251 A 
ATOM      3  C           0     133.548 133.149 140.704  0.00  0.00     0.087 A 
ATOM      4  C           0     133.653 134.468 140.934  0.00  0.00     0.015 A 
ATOM      5  C           0     133.872 134.633 142.388  0.00  0.00     0.256 A 
ATOM      6  O           0     134.013 135.689 142.970  0.00  0.00    -0.267 OA
ATOM      7  O           0     133.669 131.275 142.200  0.00  0.00    -0.268 OA
ENDROOT
BRANCH   1   8
ATOM      8  C           0     134.093 133.149 144.382  0.00  0.00     0.145 C 
BRANCH   8   9
ATOM      9  C           0     135.413 133.773 144.838  0.00  0.00     0.123 C 
BRANCH   9  10
ATOM     10  C           0     135.246 134.345 146.223  0.00  0.00     0.219 C 
ATOM     11  N           0     134.099 134.968 146.560  0.00  0.00    -0.359 N 
ATOM     12  H           0     133.382 135.048 145.912  0.00  0.00     0.162 HD
ATOM     13  O           0     136.143 134.244 147.033  0.00  0.00    -0.274 OA
BRANCH  11  14
ATOM     14  C           0     133.937 135.524 147.906  0.00  0.00     0.142 C 
BRANCH  14  15
ATOM     15  C           0     132.564 135.133 148.457  0.00  0.00     0.144 C 
BRANCH  15  16
ATOM     16  N           0     132.571 133.716 148.824  0.00  0.00    -0.335 N 
ATOM     17  C           0     132.786 133.351 150.104  0.00  0.00     0.360 C 
ATOM     18  O           0     132.975 134.200 150.953  0.00  0.00    -0.239 OA
ATOM     19  H           0     132.419 133.038 148.146  0.00  0.00     0.164 HD
BRANCH  17  20
ATOM     20  O           0     132.792 132.049 150.442  0.00  0.00    -0.302 OA
BRANCH  20  21
ATOM     21  C           0     134.053 131.343 150.593  0.00  0.00     0.208 C 
BRANCH  21  22
ATOM     22  C           0     133.818 129.839 150.432  0.00  0.00     0.151 C 
ATOM     23  N           0     134.962 129.122 150.987  0.00  0.00    -0.218 N 
ATOM     24  C           0     136.170 129.198 150.318  0.00  0.00     0.672 C 
ATOM     25  H           0     134.876 128.604 151.803  0.00  0.00     0.178 HD
ATOM     26  N           0     137.313 129.086 150.935  0.00  0.00    -0.235 N 
ATOM     27  N           0     136.089 129.404 148.966  0.00  0.00    -0.183 N 
ATOM     28  H           0     137.335 128.945 151.894  0.00  0.00     0.174 HD
ATOM     29  H           0     138.143 129.141 150.433  0.00  0.00     0.174 HD
ATOM     30  C           0     134.871 129.407 148.153  0.00  0.00     0.217 C 
ATOM     31  C           0     137.182 129.725 148.030  0.00  0.00     0.150 C 
ATOM     32  C           0     133.591 129.536 148.964  0.00  0.00     0.180 C 
ATOM     33  C           0     135.044 130.572 147.164  0.00  0.00     0.209 C 
ATOM     34  N           0     134.727 128.141 147.415  0.00  0.00    -0.191 N 
ATOM     35  N           0     132.955 128.207 148.835  0.00  0.00    -0.216 N 
ATOM     36  C           0     133.521 127.580 147.752  0.00  0.00     0.670 C 
ATOM     37  H           0     132.263 127.845 149.411  0.00  0.00     0.178 HD
ATOM     38  N           0     132.979 126.575 147.123  0.00  0.00    -0.235 N 
ATOM     39  H           0     132.122 126.226 147.414  0.00  0.00     0.174 HD
ATOM     40  H           0     133.433 126.177 146.364  0.00  0.00     0.174 HD
ATOM     41  C           0     136.577 130.787 147.082  0.00  0.00     0.093 C 
ATOM     42  H           0     135.372 127.768 146.794  0.00  0.00     0.180 HD
BRANCH  33  43
ATOM     43  O           0     134.520 130.224 145.879  0.00  0.00    -0.362 OA
ATOM     44  H           0     134.391 131.052 145.398  0.00  0.00     0.213 HD
ENDBRANCH  33  43
BRANCH  33  45
ATOM     45  O           0     134.403 131.747 147.663  0.00  0.00    -0.362 OA
ATOM     46  H           0     133.857 131.472 148.412  0.00  0.00     0.213 HD
ENDBRANCH  33  45
ENDBRANCH  21  22
ENDBRANCH  20  21
ENDBRANCH  17  20
ENDBRANCH  15  16
ENDBRANCH  14  15
ENDBRANCH  11  14
ENDBRANCH   9  10
ENDBRANCH   8   9
ENDBRANCH   1   8
BRANCH   4  47
ATOM     47  C           0     133.560 135.569 139.909  0.00  0.00     0.044 C 
BRANCH  47  48
ATOM     48  C           0     133.163 134.974 138.556  0.00  0.00     0.005 C 
BRANCH  48  49
ATOM     49  C           0     134.213 135.346 137.507  0.00  0.00     0.000 C 
BRANCH  49  50
ATOM     50  C           0     133.565 135.366 136.121  0.00  0.00     0.000 C 
BRANCH  50  51
ATOM     51  C           0     132.158 134.771 136.207  0.00  0.00     0.000 C 
BRANCH  51  52
ATOM     52  C           0     131.350 135.195 134.978  0.00  0.00     0.009 C 
BRANCH  52  53
ATOM     53  C           0     130.841 133.950 134.248  0.00  0.00     0.103 C 
BRANCH  53  54
ATOM     54  C           0     131.747 133.645 133.085  0.00  0.00     0.217 C 
ATOM     55  N           0     132.655 134.554 132.680  0.00  0.00    -0.360 N 
ATOM     56  H           0     132.726 135.406 133.138  0.00  0.00     0.162 HD
ATOM     57  O           0     131.659 132.579 132.511  0.00  0.00    -0.274 OA
BRANCH  55  58
ATOM     58  C           0     133.537 134.257 131.547  0.00  0.00     0.142 C 
BRANCH  58  59
ATOM     59  C           0     134.934 133.914 132.066  0.00  0.00     0.142 C 
BRANCH  59  60
ATOM     60  N           0     135.062 132.460 132.202  0.00  0.00    -0.360 N 
ATOM     61  C           0     134.939 131.883 133.413  0.00  0.00     0.217 C 
ATOM     62  O           0     134.723 132.567 134.392  0.00  0.00    -0.274 OA
ATOM     63  H           0     135.235 131.914 131.419  0.00  0.00     0.162 HD
BRANCH  61  64
ATOM     64  C           0     135.071 130.388 133.552  0.00  0.00     0.103 C 
BRANCH  64  65
ATOM     65  C           0     135.681 129.808 132.274  0.00  0.00     0.009 C 
BRANCH  65  66
ATOM     66  C           0     134.881 128.578 131.841  0.00  0.00     0.002 C 
BRANCH  66  67
ATOM     67  C           0     133.655 128.424 132.743  0.00  0.00     0.017 C 
BRANCH  67  68
ATOM     68  C           0     132.393 128.352 131.881  0.00  0.00     0.072 C 
ATOM     69  C           0     132.026 126.888 131.557  0.00  0.00     0.123 A 
ATOM     70  C           0     130.521 126.607 131.603  0.00  0.00     0.119 A 
ATOM     71  N           0     132.586 126.011 132.596  0.00  0.00    -0.335 N 
ATOM     72  C           0     129.669 127.843 131.964  0.00  0.00     0.101 C 
ATOM     73  N           0     130.378 125.598 132.665  0.00  0.00    -0.336 N 
ATOM     74  S           0     130.909 128.898 132.834  0.00  0.00    -0.160 SA
ATOM     75  C           0     131.588 125.321 133.169  0.00  0.00     0.316 A 
ATOM     76  H           0     129.543 125.198 132.953  0.00  0.00     0.164 HD
ATOM     77  O           0     131.766 124.518 134.065  0.00  0.00    -0.247 OA
ATOM     78  H           0     133.525 125.942 132.830  0.00  0.00     0.164 HD
ENDBRANCH  67  68
ENDBRANCH  66  67
ENDBRANCH  65  66
ENDBRANCH  64  65
ENDBRANCH  61  64
ENDBRANCH  59  60
ENDBRANCH  58  59
ENDBRANCH  55  58
ENDBRANCH  53  54
ENDBRANCH  52  53
ENDBRANCH  51  52
ENDBRANCH  50  51
ENDBRANCH  49  50
ENDBRANCH  48  49
ENDBRANCH  47  48
ENDBRANCH   4  47
TORSDOF 27
ENDMDL
MODEL 5
REMARK VINA RESULT:      -7.6      2.394      5.480
REMARK  27 active torsions:
REMARK  status: ('A' for Active; 'I' for Inactive)
REMARK    1  A    between atoms: C_6  and  C_7 
REMARK    2  A    between atoms: C_7  and  O_8 
REMARK    3  A    between atoms: O_8  and  C_9 
REMARK       I    between atoms: C_9  and  N_10 
REMARK    4  A    between atoms: N_10  and  C_11 
REMARK    5  A    between atoms: C_11  and  C_12 
REMARK    6  A    between atoms: C_12  and  N_13 
REMARK       I    between atoms: N_13  and  C_14 
REMARK    7  A    between atoms: C_14  and  C_15 
REMARK    8  A    between atoms: C_15  and  C_16 
REMARK    9  A    between atoms: C_16  and  N_17 
REMARK   10  A    between atoms: C_20  and  C_21 
REMARK   11  A    between atoms: C_21  and  C_22 
REMARK   12  A    between atoms: C_22  and  C_23 
REMARK   13  A    between atoms: C_23  and  C_24 
REMARK   14  A    between atoms: C_24  and  C_25 
REMARK   15  A    between atoms: C_25  and  C_26 
REMARK   16  A    between atoms: C_26  and  C_27 
REMARK   17  A    between atoms: C_27  and  C_28 
REMARK       I    between atoms: C_28  and  N_29 
REMARK   18  A    between atoms: N_29  and  C_30 
REMARK   19  A    between atoms: C_30  and  C_31 
REMARK   20  A    between atoms: C_31  and  N_32 
REMARK       I    between atoms: N_32  and  C_33 
REMARK   21  A    between atoms: C_33  and  C_34 
REMARK   22  A    between atoms: C_34  and  C_35 
REMARK   23  A    between atoms: C_35  and  C_36 
REMARK   24  A    between atoms: C_36  and  C_37 
REMARK   25  A    between atoms: C_37  and  C_38 
REMARK   26  A    between atoms: C_65  and  O_66 
REMARK   27  A    between atoms: C_65  and  O_67 
ROOT
ATOM      1  N           0     134.226 134.152 143.176  0.00  0.00    -0.281 N 
ATOM      2  C           0     134.060 133.050 142.422  0.00  0.00     0.251 A 
ATOM      3  C           0     133.736 133.473 141.042  0.00  0.00     0.087 A 
ATOM      4  C           0     133.726 134.816 141.040  0.00  0.00     0.015 A 
ATOM      5  C           0     134.038 135.248 142.420  0.00  0.00     0.256 A 
ATOM      6  O           0     134.117 136.397 142.804  0.00  0.00    -0.267 OA
ATOM      7  O           0     134.158 131.904 142.810  0.00  0.00    -0.268 OA
ENDROOT
BRANCH   1   8
ATOM      8  C           0     134.558 134.157 144.603  0.00  0.00     0.145 C 
BRANCH   8   9
ATOM      9  C           0     133.272 134.051 145.426  0.00  0.00     0.123 C 
BRANCH   9  10
ATOM     10  C           0     133.230 135.169 146.437  0.00  0.00     0.219 C 
ATOM     11  N           0     133.420 134.903 147.744  0.00  0.00    -0.359 N 
ATOM     12  H           0     133.583 133.992 148.034  0.00  0.00     0.162 HD
ATOM     13  O           0     133.025 136.308 146.073  0.00  0.00    -0.274 OA
BRANCH  11  14
ATOM     14  C           0     133.378 135.990 148.726  0.00  0.00     0.142 C 
BRANCH  14  15
ATOM     15  C           0     134.520 135.814 149.730  0.00  0.00     0.144 C 
BRANCH  15  16
ATOM     16  N           0     135.469 134.823 149.220  0.00  0.00    -0.335 N 
ATOM     17  C           0     136.759 135.163 149.024  0.00  0.00     0.360 C 
ATOM     18  O           0     137.133 136.292 149.271  0.00  0.00    -0.239 OA
ATOM     19  H           0     135.170 133.921 149.023  0.00  0.00     0.164 HD
BRANCH  17  20
ATOM     20  O           0     137.632 134.252 148.556  0.00  0.00    -0.302 OA
BRANCH  20  21
ATOM     21  C           0     137.377 133.584 147.291  0.00  0.00     0.208 C 
BRANCH  21  22
ATOM     22  C           0     138.497 132.579 147.011  0.00  0.00     0.151 C 
ATOM     23  N           0     138.351 132.080 145.646  0.00  0.00    -0.218 N 
ATOM     24  C           0     137.278 131.254 145.362  0.00  0.00     0.672 C 
ATOM     25  H           0     138.990 132.320 144.957  0.00  0.00     0.178 HD
ATOM     26  N           0     136.745 131.192 144.174  0.00  0.00    -0.235 N 
ATOM     27  N           0     136.807 130.509 146.412  0.00  0.00    -0.183 N 
ATOM     28  H           0     137.101 131.736 143.454  0.00  0.00     0.174 HD
ATOM     29  H           0     135.995 130.598 144.009  0.00  0.00     0.174 HD
ATOM     30  C           0     137.406 130.396 147.743  0.00  0.00     0.217 C 
ATOM     31  C           0     135.572 129.705 146.471  0.00  0.00     0.150 C 
ATOM     32  C           0     138.432 131.476 148.049  0.00  0.00     0.180 C 
ATOM     33  C           0     136.224 130.431 148.727  0.00  0.00     0.209 C 
ATOM     34  N           0     138.138 129.126 147.884  0.00  0.00    -0.191 N 
ATOM     35  N           0     139.719 130.747 148.064  0.00  0.00    -0.216 N 
ATOM     36  C           0     139.438 129.412 148.219  0.00  0.00     0.670 C 
ATOM     37  H           0     140.601 131.142 147.982  0.00  0.00     0.178 HD
ATOM     38  N           0     140.300 128.526 148.633  0.00  0.00    -0.235 N 
ATOM     39  H           0     141.205 128.796 148.854  0.00  0.00     0.174 HD
ATOM     40  H           0     140.035 127.596 148.720  0.00  0.00     0.174 HD
ATOM     41  C           0     135.005 129.975 147.884  0.00  0.00     0.093 C 
ATOM     42  H           0     137.765 128.238 147.764  0.00  0.00     0.180 HD
BRANCH  33  43
ATOM     43  O           0     136.446 129.526 149.812  0.00  0.00    -0.362 OA
ATOM     44  H           0     136.108 129.958 150.608  0.00  0.00     0.213 HD
ENDBRANCH  33  43
BRANCH  33  45
ATOM     45  O           0     136.023 131.758 149.215  0.00  0.00    -0.362 OA
ATOM     46  H           0     136.884 132.198 149.192  0.00  0.00     0.213 HD
ENDBRANCH  33  45
ENDBRANCH  21  22
ENDBRANCH  20  21
ENDBRANCH  17  20
ENDBRANCH  15  16
ENDBRANCH  14  15
ENDBRANCH  11  14
ENDBRANCH   9  10
ENDBRANCH   8   9
ENDBRANCH   1   8
BRANCH   4  47
ATOM     47  C           0     133.447 135.710 139.860  0.00  0.00     0.044 C 
BRANCH  47  48
ATOM     48  C           0     133.371 134.865 138.586  0.00  0.00     0.005 C 
BRANCH  48  49
ATOM     49  C           0     134.476 135.299 137.620  0.00  0.00     0.000 C 
BRANCH  49  50
ATOM     50  C           0     133.921 135.339 136.195  0.00  0.00     0.000 C 
BRANCH  50  51
ATOM     51  C           0     132.393 135.385 136.243  0.00  0.00     0.000 C 
BRANCH  51  52
ATOM     52  C           0     131.854 135.833 134.883  0.00  0.00     0.009 C 
BRANCH  52  53
ATOM     53  C           0     131.050 134.693 134.253  0.00  0.00     0.103 C 
BRANCH  53  54
ATOM     54  C           0     131.832 134.098 133.111  0.00  0.00     0.217 C 
ATOM     55  N           0     132.881 134.766 132.592  0.00  0.00    -0.360 N 
ATOM     56  H           0     133.133 135.630 132.953  0.00  0.00     0.162 HD
ATOM     57  O           0     131.518 133.016 132.659  0.00  0.00    -0.274 OA
BRANCH  55  58
ATOM     58  C           0     133.642 134.186 131.481  0.00  0.00     0.142 C 
BRANCH  58  59
ATOM     59  C           0     135.060 133.858 131.951  0.00  0.00     0.142 C 
BRANCH  59  60
ATOM     60  N           0     135.196 132.409 132.121  0.00  0.00    -0.360 N 
ATOM     61  C           0     134.983 131.849 133.328  0.00  0.00     0.217 C 
ATOM     62  O           0     134.679 132.545 134.275  0.00  0.00    -0.274 OA
ATOM     63  H           0     135.439 131.854 131.364  0.00  0.00     0.162 HD
BRANCH  61  64
ATOM     64  C           0     135.123 130.359 133.502  0.00  0.00     0.103 C 
BRANCH  64  65
ATOM     65  C           0     135.727 129.751 132.234  0.00  0.00     0.009 C 
BRANCH  65  66
ATOM     66  C           0     134.895 128.542 131.803  0.00  0.00     0.002 C 
BRANCH  66  67
ATOM     67  C           0     133.683 128.403 132.726  0.00  0.00     0.017 C 
BRANCH  67  68
ATOM     68  C           0     132.405 128.357 131.887  0.00  0.00     0.072 C 
ATOM     69  C           0     132.009 126.902 131.556  0.00  0.00     0.123 A 
ATOM     70  C           0     130.501 126.644 131.627  0.00  0.00     0.119 A 
ATOM     71  N           0     132.574 126.007 132.578  0.00  0.00    -0.335 N 
ATOM     72  C           0     129.675 127.890 132.014  0.00  0.00     0.101 C 
ATOM     73  N           0     130.362 125.628 132.682  0.00  0.00    -0.336 N 
ATOM     74  S           0     130.947 128.917 132.870  0.00  0.00    -0.160 SA
ATOM     75  C           0     131.576 125.328 133.163  0.00  0.00     0.316 A 
ATOM     76  H           0     129.525 125.238 132.983  0.00  0.00     0.164 HD
ATOM     77  O           0     131.757 124.515 134.048  0.00  0.00    -0.247 OA
ATOM     78  H           0     133.516 125.922 132.794  0.00  0.00     0.164 HD
ENDBRANCH  67  68
ENDBRANCH  66  67
ENDBRANCH  65  66
ENDBRANCH  64  65
ENDBRANCH  61  64
ENDBRANCH  59  60
ENDBRANCH  58  59
ENDBRANCH  55  58
ENDBRANCH  53  54
ENDBRANCH  52  53
ENDBRANCH  51  52
ENDBRANCH  50  51
ENDBRANCH  49  50
ENDBRANCH  48  49
ENDBRANCH  47  48
ENDBRANCH   4  47
TORSDOF 27
ENDMDL
MODEL 6
REMARK VINA RESULT:      -7.5      2.515      4.704
REMARK  27 active torsions:
REMARK  status: ('A' for Active; 'I' for Inactive)
REMARK    1  A    between atoms: C_6  and  C_7 
REMARK    2  A    between atoms: C_7  and  O_8 
REMARK    3  A    between atoms: O_8  and  C_9 
REMARK       I    between atoms: C_9  and  N_10 
REMARK    4  A    between atoms: N_10  and  C_11 
REMARK    5  A    between atoms: C_11  and  C_12 
REMARK    6  A    between atoms: C_12  and  N_13 
REMARK       I    between atoms: N_13  and  C_14 
REMARK    7  A    between atoms: C_14  and  C_15 
REMARK    8  A    between atoms: C_15  and  C_16 
REMARK    9  A    between atoms: C_16  and  N_17 
REMARK   10  A    between atoms: C_20  and  C_21 
REMARK   11  A    between atoms: C_21  and  C_22 
REMARK   12  A    between atoms: C_22  and  C_23 
REMARK   13  A    between atoms: C_23  and  C_24 
REMARK   14  A    between atoms: C_24  and  C_25 
REMARK   15  A    between atoms: C_25  and  C_26 
REMARK   16  A    between atoms: C_26  and  C_27 
REMARK   17  A    between atoms: C_27  and  C_28 
REMARK       I    between atoms: C_28  and  N_29 
REMARK   18  A    between atoms: N_29  and  C_30 
REMARK   19  A    between atoms: C_30  and  C_31 
REMARK   20  A    between atoms: C_31  and  N_32 
REMARK       I    between atoms: N_32  and  C_33 
REMARK   21  A    between atoms: C_33  and  C_34 
REMARK   22  A    between atoms: C_34  and  C_35 
REMARK   23  A    between atoms: C_35  and  C_36 
REMARK   24  A    between atoms: C_36  and  C_37 
REMARK   25  A    between atoms: C_37  and  C_38 
REMARK   26  A    between atoms: C_65  and  O_66 
REMARK   27  A    between atoms: C_65  and  O_67 
ROOT
ATOM      1  N           0     134.987 133.860 143.134  0.00  0.00    -0.281 N 
ATOM      2  C           0     134.746 132.755 142.404  0.00  0.00     0.251 A 
ATOM      3  C           0     134.018 133.154 141.180  0.00  0.00     0.087 A 
ATOM      4  C           0     133.859 134.487 141.239  0.00  0.00     0.015 A 
ATOM      5  C           0     134.482 134.935 142.504  0.00  0.00     0.256 A 
ATOM      6  O           0     134.533 136.080 142.903  0.00  0.00    -0.267 OA
ATOM      7  O           0     135.071 131.624 142.701  0.00  0.00    -0.268 OA
ENDROOT
BRANCH   1   8
ATOM      8  C           0     135.688 133.886 144.420  0.00  0.00     0.145 C 
BRANCH   8   9
ATOM      9  C           0     137.102 134.435 144.218  0.00  0.00     0.123 C 
BRANCH   9  10
ATOM     10  C           0     138.092 133.298 144.257  0.00  0.00     0.219 C 
ATOM     11  N           0     138.586 132.874 145.437  0.00  0.00    -0.359 N 
ATOM     12  H           0     138.305 133.301 146.261  0.00  0.00     0.162 HD
ATOM     13  O           0     138.443 132.765 143.225  0.00  0.00    -0.274 OA
BRANCH  11  14
ATOM     14  C           0     139.549 131.770 145.474  0.00  0.00     0.142 C 
BRANCH  14  15
ATOM     15  C           0     140.470 131.937 146.684  0.00  0.00     0.144 C 
BRANCH  15  16
ATOM     16  N           0     139.705 131.721 147.913  0.00  0.00    -0.335 N 
ATOM     17  C           0     139.928 130.622 148.662  0.00  0.00     0.360 C 
ATOM     18  O           0     140.764 129.811 148.315  0.00  0.00    -0.239 OA
ATOM     19  H           0     139.037 132.369 148.190  0.00  0.00     0.164 HD
BRANCH  17  20
ATOM     20  O           0     139.225 130.423 149.792  0.00  0.00    -0.302 OA
BRANCH  20  21
ATOM     21  C           0     137.887 129.862 149.726  0.00  0.00     0.208 C 
BRANCH  21  22
ATOM     22  C           0     136.857 130.972 149.945  0.00  0.00     0.151 C 
ATOM     23  N           0     135.761 130.446 150.755  0.00  0.00    -0.218 N 
ATOM     24  C           0     134.916 129.511 150.185  0.00  0.00     0.672 C 
ATOM     25  H           0     135.630 130.745 151.669  0.00  0.00     0.178 HD
ATOM     26  N           0     134.293 128.613 150.897  0.00  0.00    -0.235 N 
ATOM     27  N           0     134.778 129.586 148.824  0.00  0.00    -0.183 N 
ATOM     28  H           0     134.417 128.586 151.859  0.00  0.00     0.174 HD
ATOM     29  H           0     133.704 127.974 150.465  0.00  0.00     0.174 HD
ATOM     30  C           0     135.315 130.627 147.946  0.00  0.00     0.217 C 
ATOM     31  C           0     134.120 128.620 147.925  0.00  0.00     0.150 C 
ATOM     32  C           0     136.394 131.480 148.594  0.00  0.00     0.180 C 
ATOM     33  C           0     135.837 129.885 146.704  0.00  0.00     0.209 C 
ATOM     34  N           0     134.263 131.579 147.555  0.00  0.00    -0.191 N 
ATOM     35  N           0     135.747 132.799 148.766  0.00  0.00    -0.216 N 
ATOM     36  C           0     134.658 132.838 147.931  0.00  0.00     0.670 C 
ATOM     37  H           0     136.041 133.508 149.360  0.00  0.00     0.178 HD
ATOM     38  N           0     134.071 133.937 147.545  0.00  0.00    -0.235 N 
ATOM     39  H           0     134.402 134.796 147.849  0.00  0.00     0.174 HD
ATOM     40  H           0     133.303 133.893 146.953  0.00  0.00     0.174 HD
ATOM     41  C           0     135.048 128.551 146.689  0.00  0.00     0.093 C 
ATOM     42  H           0     133.433 131.356 147.103  0.00  0.00     0.180 HD
BRANCH  33  43
ATOM     43  O           0     135.568 130.636 145.518  0.00  0.00    -0.362 OA
ATOM     44  H           0     135.384 129.996 144.818  0.00  0.00     0.213 HD
ENDBRANCH  33  43
BRANCH  33  45
ATOM     45  O           0     137.238 129.632 146.829  0.00  0.00    -0.362 OA
ATOM     46  H           0     137.568 129.443 145.940  0.00  0.00     0.213 HD
ENDBRANCH  33  45
ENDBRANCH  21  22
ENDBRANCH  20  21
ENDBRANCH  17  20
ENDBRANCH  15  16
ENDBRANCH  14  15
ENDBRANCH  11  14
ENDBRANCH   9  10
ENDBRANCH   8   9
ENDBRANCH   1   8
BRANCH   4  47
ATOM     47  C           0     133.174 135.356 140.217  0.00  0.00     0.044 C 
BRANCH  47  48
ATOM     48  C           0     133.191 134.654 138.857  0.00  0.00     0.005 C 
BRANCH  48  49
ATOM     49  C           0     134.321 135.228 138.000  0.00  0.00     0.000 C 
BRANCH  49  50
ATOM     50  C           0     133.847 135.357 136.551  0.00  0.00     0.000 C 
BRANCH  50  51
ATOM     51  C           0     132.371 134.967 136.459  0.00  0.00     0.000 C 
BRANCH  51  52
ATOM     52  C           0     131.744 135.629 135.230  0.00  0.00     0.009 C 
BRANCH  52  53
ATOM     53  C           0     130.894 134.604 134.477  0.00  0.00     0.103 C 
BRANCH  53  54
ATOM     54  C           0     131.661 134.093 133.286  0.00  0.00     0.217 C 
ATOM     55  N           0     132.708 134.794 132.807  0.00  0.00    -0.360 N 
ATOM     56  H           0     132.967 135.627 133.228  0.00  0.00     0.162 HD
ATOM     57  O           0     131.337 133.050 132.757  0.00  0.00    -0.274 OA
BRANCH  55  58
ATOM     58  C           0     133.454 134.296 131.647  0.00  0.00     0.142 C 
BRANCH  58  59
ATOM     59  C           0     134.865 133.896 132.083  0.00  0.00     0.142 C 
BRANCH  59  60
ATOM     60  N           0     134.923 132.445 132.278  0.00  0.00    -0.360 N 
ATOM     61  C           0     134.774 131.925 133.512  0.00  0.00     0.217 C 
ATOM     62  O           0     134.592 132.658 134.462  0.00  0.00    -0.274 OA
ATOM     63  H           0     135.069 131.860 131.519  0.00  0.00     0.162 HD
BRANCH  61  64
ATOM     64  C           0     134.834 130.433 133.713  0.00  0.00     0.103 C 
BRANCH  64  65
ATOM     65  C           0     135.487 129.780 132.492  0.00  0.00     0.009 C 
BRANCH  65  66
ATOM     66  C           0     134.488 128.831 131.828  0.00  0.00     0.002 C 
BRANCH  66  67
ATOM     67  C           0     133.263 128.667 132.730  0.00  0.00     0.017 C 
BRANCH  67  68
ATOM     68  C           0     132.012 128.496 131.865  0.00  0.00     0.072 C 
ATOM     69  C           0     131.786 127.013 131.504  0.00  0.00     0.123 A 
ATOM     70  C           0     130.314 126.588 131.543  0.00  0.00     0.119 A 
ATOM     71  N           0     132.429 126.167 132.522  0.00  0.00    -0.335 N 
ATOM     72  C           0     129.350 127.729 131.933  0.00  0.00     0.101 C 
ATOM     73  N           0     130.270 125.545 132.579  0.00  0.00    -0.336 N 
ATOM     74  S           0     130.485 128.875 132.830  0.00  0.00    -0.160 SA
ATOM     75  C           0     131.502 125.372 133.077  0.00  0.00     0.316 A 
ATOM     76  H           0     129.477 125.060 132.857  0.00  0.00     0.164 HD
ATOM     77  O           0     131.756 124.568 133.953  0.00  0.00    -0.247 OA
ATOM     78  H           0     133.370 126.183 132.755  0.00  0.00     0.164 HD
ENDBRANCH  67  68
ENDBRANCH  66  67
ENDBRANCH  65  66
ENDBRANCH  64  65
ENDBRANCH  61  64
ENDBRANCH  59  60
ENDBRANCH  58  59
ENDBRANCH  55  58
ENDBRANCH  53  54
ENDBRANCH  52  53
ENDBRANCH  51  52
ENDBRANCH  50  51
ENDBRANCH  49  50
ENDBRANCH  48  49
ENDBRANCH  47  48
ENDBRANCH   4  47
TORSDOF 27
ENDMDL
MODEL 7
REMARK VINA RESULT:      -7.1      2.258      5.827
REMARK  27 active torsions:
REMARK  status: ('A' for Active; 'I' for Inactive)
REMARK    1  A    between atoms: C_6  and  C_7 
REMARK    2  A    between atoms: C_7  and  O_8 
REMARK    3  A    between atoms: O_8  and  C_9 
REMARK       I    between atoms: C_9  and  N_10 
REMARK    4  A    between atoms: N_10  and  C_11 
REMARK    5  A    between atoms: C_11  and  C_12 
REMARK    6  A    between atoms: C_12  and  N_13 
REMARK       I    between atoms: N_13  and  C_14 
REMARK    7  A    between atoms: C_14  and  C_15 
REMARK    8  A    between atoms: C_15  and  C_16 
REMARK    9  A    between atoms: C_16  and  N_17 
REMARK   10  A    between atoms: C_20  and  C_21 
REMARK   11  A    between atoms: C_21  and  C_22 
REMARK   12  A    between atoms: C_22  and  C_23 
REMARK   13  A    between atoms: C_23  and  C_24 
REMARK   14  A    between atoms: C_24  and  C_25 
REMARK   15  A    between atoms: C_25  and  C_26 
REMARK   16  A    between atoms: C_26  and  C_27 
REMARK   17  A    between atoms: C_27  and  C_28 
REMARK       I    between atoms: C_28  and  N_29 
REMARK   18  A    between atoms: N_29  and  C_30 
REMARK   19  A    between atoms: C_30  and  C_31 
REMARK   20  A    between atoms: C_31  and  N_32 
REMARK       I    between atoms: N_32  and  C_33 
REMARK   21  A    between atoms: C_33  and  C_34 
REMARK   22  A    between atoms: C_34  and  C_35 
REMARK   23  A    between atoms: C_35  and  C_36 
REMARK   24  A    between atoms: C_36  and  C_37 
REMARK   25  A    between atoms: C_37  and  C_38 
REMARK   26  A    between atoms: C_65  and  O_66 
REMARK   27  A    between atoms: C_65  and  O_67 
ROOT
ATOM      1  N           0     132.960 135.482 148.471  0.00  0.00    -0.281 N 
ATOM      2  C           0     133.485 134.246 148.388  0.00  0.00     0.251 A 
ATOM      3  C           0     133.820 133.974 146.973  0.00  0.00     0.087 A 
ATOM      4  C           0     133.477 135.070 146.276  0.00  0.00     0.015 A 
ATOM      5  C           0     132.918 136.036 147.246  0.00  0.00     0.256 A 
ATOM      6  O           0     132.498 137.145 146.983  0.00  0.00    -0.267 OA
ATOM      7  O           0     133.654 133.483 149.317  0.00  0.00    -0.268 OA
ENDROOT
BRANCH   1   8
ATOM      8  C           0     132.500 136.123 149.705  0.00  0.00     0.145 C 
BRANCH   8   9
ATOM      9  C           0     133.491 135.829 150.832  0.00  0.00     0.123 C 
BRANCH   9  10
ATOM     10  C           0     134.647 136.794 150.750  0.00  0.00     0.219 C 
ATOM     11  N           0     135.882 136.343 150.455  0.00  0.00    -0.359 N 
ATOM     12  H           0     136.027 135.397 150.296  0.00  0.00     0.162 HD
ATOM     13  O           0     134.464 137.977 150.949  0.00  0.00    -0.274 OA
BRANCH  11  14
ATOM     14  C           0     137.005 137.281 150.375  0.00  0.00     0.142 C 
BRANCH  14  15
ATOM     15  C           0     138.287 136.581 150.832  0.00  0.00     0.144 C 
BRANCH  15  16
ATOM     16  N           0     138.865 135.840 149.709  0.00  0.00    -0.335 N 
ATOM     17  C           0     138.666 134.511 149.604  0.00  0.00     0.360 C 
ATOM     18  O           0     138.007 133.929 150.442  0.00  0.00    -0.239 OA
ATOM     19  H           0     139.391 136.306 149.040  0.00  0.00     0.164 HD
BRANCH  17  20
ATOM     20  O           0     139.197 133.830 148.573  0.00  0.00    -0.302 OA
BRANCH  20  21
ATOM     21  C           0     138.334 133.083 147.674  0.00  0.00     0.208 C 
BRANCH  21  22
ATOM     22  C           0     139.016 131.769 147.287  0.00  0.00     0.151 C 
ATOM     23  N           0     138.755 131.501 145.875  0.00  0.00    -0.218 N 
ATOM     24  C           0     137.467 131.164 145.500  0.00  0.00     0.672 C 
ATOM     25  H           0     139.468 131.555 145.219  0.00  0.00     0.178 HD
ATOM     26  N           0     137.001 131.425 144.310  0.00  0.00    -0.235 N 
ATOM     27  N           0     136.711 130.545 146.459  0.00  0.00    -0.183 N 
ATOM     28  H           0     137.562 131.869 143.656  0.00  0.00     0.174 HD
ATOM     29  H           0     136.093 131.172 144.079  0.00  0.00     0.174 HD
ATOM     30  C           0     137.168 130.083 147.771  0.00  0.00     0.217 C 
ATOM     31  C           0     135.266 130.254 146.427  0.00  0.00     0.150 C 
ATOM     32  C           0     138.505 130.669 148.196  0.00  0.00     0.180 C 
ATOM     33  C           0     136.041 130.452 148.750  0.00  0.00     0.209 C 
ATOM     34  N           0     137.375 128.625 147.773  0.00  0.00    -0.191 N 
ATOM     35  N           0     139.432 129.518 148.135  0.00  0.00    -0.216 N 
ATOM     36  C           0     138.673 128.373 148.141  0.00  0.00     0.670 C 
ATOM     37  H           0     140.400 129.563 148.098  0.00  0.00     0.178 HD
ATOM     38  N           0     139.130 127.194 148.456  0.00  0.00    -0.235 N 
ATOM     39  H           0     140.060 127.085 148.708  0.00  0.00     0.174 HD
ATOM     40  H           0     138.538 126.425 148.439  0.00  0.00     0.174 HD
ATOM     41  C           0     134.777 130.569 147.860  0.00  0.00     0.093 C 
ATOM     42  H           0     136.707 127.955 147.555  0.00  0.00     0.180 HD
BRANCH  33  43
ATOM     43  O           0     135.868 129.425 149.729  0.00  0.00    -0.362 OA
ATOM     44  H           0     135.266 129.777 150.399  0.00  0.00     0.213 HD
ENDBRANCH  33  43
BRANCH  33  45
ATOM     45  O           0     136.322 131.703 149.382  0.00  0.00    -0.362 OA
ATOM     46  H           0     135.937 132.391 148.823  0.00  0.00     0.213 HD
ENDBRANCH  33  45
ENDBRANCH  21  22
ENDBRANCH  20  21
ENDBRANCH  17  20
ENDBRANCH  15  16
ENDBRANCH  14  15
ENDBRANCH  11  14
ENDBRANCH   9  10
ENDBRANCH   8   9
ENDBRANCH   1   8
BRANCH   4  47
ATOM     47  C           0     133.628 135.273 144.790  0.00  0.00     0.044 C 
BRANCH  47  48
ATOM     48  C           0     134.000 133.944 144.129  0.00  0.00     0.005 C 
BRANCH  48  49
ATOM     49  C           0     134.971 134.203 142.975  0.00  0.00     0.000 C 
BRANCH  49  50
ATOM     50  C           0     134.529 133.405 141.747  0.00  0.00     0.000 C 
BRANCH  50  51
ATOM     51  C           0     133.006 133.467 141.619  0.00  0.00     0.000 C 
BRANCH  51  52
ATOM     52  C           0     132.628 133.746 140.163  0.00  0.00     0.009 C 
BRANCH  52  53
ATOM     53  C           0     133.250 135.072 139.719  0.00  0.00     0.103 C 
BRANCH  53  54
ATOM     54  C           0     133.596 135.000 138.255  0.00  0.00     0.217 C 
ATOM     55  N           0     132.683 135.351 137.328  0.00  0.00    -0.360 N 
ATOM     56  H           0     131.803 135.651 137.603  0.00  0.00     0.162 HD
ATOM     57  O           0     134.698 134.625 137.910  0.00  0.00    -0.274 OA
BRANCH  55  58
ATOM     58  C           0     133.021 135.281 135.903  0.00  0.00     0.142 C 
BRANCH  58  59
ATOM     59  C           0     132.055 136.160 135.107  0.00  0.00     0.142 C 
BRANCH  59  60
ATOM     60  N           0     130.873 135.377 134.737  0.00  0.00    -0.360 N 
ATOM     61  C           0     130.340 135.503 133.505  0.00  0.00     0.217 C 
ATOM     62  O           0     130.839 136.265 132.703  0.00  0.00    -0.274 OA
ATOM     63  H           0     130.475 134.769 135.378  0.00  0.00     0.162 HD
BRANCH  61  64
ATOM     64  C           0     129.125 134.697 133.125  0.00  0.00     0.103 C 
BRANCH  64  65
ATOM     65  C           0     129.132 134.445 131.616  0.00  0.00     0.009 C 
BRANCH  65  66
ATOM     66  C           0     128.945 132.950 131.349  0.00  0.00     0.002 C 
BRANCH  66  67
ATOM     67  C           0     129.848 132.148 132.288  0.00  0.00     0.017 C 
BRANCH  67  68
ATOM     68  C           0     129.918 130.696 131.813  0.00  0.00     0.072 C 
ATOM     69  C           0     131.373 130.180 131.817  0.00  0.00     0.123 A 
ATOM     70  C           0     131.511 128.733 132.302  0.00  0.00     0.119 A 
ATOM     71  N           0     132.156 130.959 132.788  0.00  0.00    -0.335 N 
ATOM     72  C           0     130.168 128.078 132.690  0.00  0.00     0.101 C 
ATOM     73  N           0     132.358 128.837 133.500  0.00  0.00    -0.336 N 
ATOM     74  S           0     129.125 129.561 133.033  0.00  0.00    -0.160 SA
ATOM     75  C           0     132.675 130.124 133.701  0.00  0.00     0.316 A 
ATOM     76  H           0     132.642 128.094 134.056  0.00  0.00     0.164 HD
ATOM     77  O           0     133.369 130.500 134.625  0.00  0.00    -0.247 OA
ATOM     78  H           0     132.278 131.921 132.771  0.00  0.00     0.164 HD
ENDBRANCH  67  68
ENDBRANCH  66  67
ENDBRANCH  65  66
ENDBRANCH  64  65
ENDBRANCH  61  64
ENDBRANCH  59  60
ENDBRANCH  58  59
ENDBRANCH  55  58
ENDBRANCH  53  54
ENDBRANCH  52  53
ENDBRANCH  51  52
ENDBRANCH  50  51
ENDBRANCH  49  50
ENDBRANCH  48  49
ENDBRANCH  47  48
ENDBRANCH   4  47
TORSDOF 27
ENDMDL
MODEL 8
REMARK VINA RESULT:      -7.0      2.538      4.997
REMARK  27 active torsions:
REMARK  status: ('A' for Active; 'I' for Inactive)
REMARK    1  A    between atoms: C_6  and  C_7 
REMARK    2  A    between atoms: C_7  and  O_8 
REMARK    3  A    between atoms: O_8  and  C_9 
REMARK       I    between atoms: C_9  and  N_10 
REMARK    4  A    between atoms: N_10  and  C_11 
REMARK    5  A    between atoms: C_11  and  C_12 
REMARK    6  A    between atoms: C_12  and  N_13 
REMARK       I    between atoms: N_13  and  C_14 
REMARK    7  A    between atoms: C_14  and  C_15 
REMARK    8  A    between atoms: C_15  and  C_16 
REMARK    9  A    between atoms: C_16  and  N_17 
REMARK   10  A    between atoms: C_20  and  C_21 
REMARK   11  A    between atoms: C_21  and  C_22 
REMARK   12  A    between atoms: C_22  and  C_23 
REMARK   13  A    between atoms: C_23  and  C_24 
REMARK   14  A    between atoms: C_24  and  C_25 
REMARK   15  A    between atoms: C_25  and  C_26 
REMARK   16  A    between atoms: C_26  and  C_27 
REMARK   17  A    between atoms: C_27  and  C_28 
REMARK       I    between atoms: C_28  and  N_29 
REMARK   18  A    between atoms: N_29  and  C_30 
REMARK   19  A    between atoms: C_30  and  C_31 
REMARK   20  A    between atoms: C_31  and  N_32 
REMARK       I    between atoms: N_32  and  C_33 
REMARK   21  A    between atoms: C_33  and  C_34 
REMARK   22  A    between atoms: C_34  and  C_35 
REMARK   23  A    between atoms: C_35  and  C_36 
REMARK   24  A    between atoms: C_36  and  C_37 
REMARK   25  A    between atoms: C_37  and  C_38 
REMARK   26  A    between atoms: C_65  and  O_66 
REMARK   27  A    between atoms: C_65  and  O_67 
ROOT
ATOM      1  N           0     134.625 133.691 142.851  0.00  0.00    -0.281 N 
ATOM      2  C           0     134.227 132.585 142.198  0.00  0.00     0.251 A 
ATOM      3  C           0     133.506 132.998 140.974  0.00  0.00     0.087 A 
ATOM      4  C           0     133.509 134.341 140.957  0.00  0.00     0.015 A 
ATOM      5  C           0     134.227 134.782 142.173  0.00  0.00     0.256 A 
ATOM      6  O           0     134.429 135.934 142.500  0.00  0.00    -0.267 OA
ATOM      7  O           0     134.427 131.441 142.552  0.00  0.00    -0.268 OA
ENDROOT
BRANCH   1   8
ATOM      8  C           0     135.372 133.705 144.111  0.00  0.00     0.145 C 
BRANCH   8   9
ATOM      9  C           0     136.860 133.912 143.820  0.00  0.00     0.123 C 
BRANCH   9  10
ATOM     10  C           0     137.651 132.776 144.418  0.00  0.00     0.219 C 
ATOM     11  N           0     138.598 133.029 145.343  0.00  0.00    -0.359 N 
ATOM     12  H           0     138.772 133.941 145.622  0.00  0.00     0.162 HD
ATOM     13  O           0     137.433 131.635 144.068  0.00  0.00    -0.274 OA
BRANCH  11  14
ATOM     14  C           0     139.367 131.925 145.924  0.00  0.00     0.142 C 
BRANCH  14  15
ATOM     15  C           0     140.212 132.450 147.087  0.00  0.00     0.144 C 
BRANCH  15  16
ATOM     16  N           0     139.343 133.113 148.061  0.00  0.00    -0.335 N 
ATOM     17  C           0     139.017 132.488 149.210  0.00  0.00     0.360 C 
ATOM     18  O           0     139.446 131.374 149.437  0.00  0.00    -0.239 OA
ATOM     19  H           0     139.001 134.003 147.880  0.00  0.00     0.164 HD
BRANCH  17  20
ATOM     20  O           0     138.219 133.098 150.106  0.00  0.00    -0.302 OA
BRANCH  20  21
ATOM     21  C           0     136.858 132.630 150.303  0.00  0.00     0.208 C 
BRANCH  21  22
ATOM     22  C           0     136.093 132.713 148.980  0.00  0.00     0.151 C 
ATOM     23  N           0     134.716 133.114 149.255  0.00  0.00    -0.218 N 
ATOM     24  C           0     133.888 132.211 149.898  0.00  0.00     0.672 C 
ATOM     25  H           0     134.391 133.989 148.993  0.00  0.00     0.178 HD
ATOM     26  N           0     132.893 132.595 150.648  0.00  0.00    -0.235 N 
ATOM     27  N           0     134.183 130.888 149.700  0.00  0.00    -0.183 N 
ATOM     28  H           0     132.714 133.541 150.771  0.00  0.00     0.174 HD
ATOM     29  H           0     132.329 131.935 151.082  0.00  0.00     0.174 HD
ATOM     30  C           0     135.181 130.342 148.778  0.00  0.00     0.217 C 
ATOM     31  C           0     133.619 129.719 150.399  0.00  0.00     0.150 C 
ATOM     32  C           0     136.184 131.371 148.280  0.00  0.00     0.180 C 
ATOM     33  C           0     135.864 129.198 149.547  0.00  0.00     0.209 C 
ATOM     34  N           0     134.541 129.816 147.562  0.00  0.00    -0.191 N 
ATOM     35  N           0     135.836 131.542 146.853  0.00  0.00    -0.216 N 
ATOM     36  C           0     135.084 130.457 146.476  0.00  0.00     0.670 C 
ATOM     37  H           0     136.094 132.286 146.286  0.00  0.00     0.178 HD
ATOM     38  N           0     134.908 130.082 145.240  0.00  0.00    -0.235 N 
ATOM     39  H           0     135.321 130.581 144.518  0.00  0.00     0.174 HD
ATOM     40  H           0     134.362 129.304 145.043  0.00  0.00     0.174 HD
ATOM     41  C           0     134.830 128.784 150.625  0.00  0.00     0.093 C 
ATOM     42  H           0     133.855 129.130 147.531  0.00  0.00     0.180 HD
BRANCH  33  43
ATOM     43  O           0     136.141 128.100 148.674  0.00  0.00    -0.362 OA
ATOM     44  H           0     136.521 128.473 147.868  0.00  0.00     0.213 HD
ENDBRANCH  33  43
BRANCH  33  45
ATOM     45  O           0     137.067 129.662 150.163  0.00  0.00    -0.362 OA
ATOM     46  H           0     137.238 129.080 150.915  0.00  0.00     0.213 HD
ENDBRANCH  33  45
ENDBRANCH  21  22
ENDBRANCH  20  21
ENDBRANCH  17  20
ENDBRANCH  15  16
ENDBRANCH  14  15
ENDBRANCH  11  14
ENDBRANCH   9  10
ENDBRANCH   8   9
ENDBRANCH   1   8
BRANCH   4  47
ATOM     47  C           0     132.895 135.228 139.905  0.00  0.00     0.044 C 
BRANCH  47  48
ATOM     48  C           0     133.257 134.697 138.516  0.00  0.00     0.005 C 
BRANCH  48  49
ATOM     49  C           0     134.470 135.460 137.979  0.00  0.00     0.000 C 
BRANCH  49  50
ATOM     50  C           0     134.898 134.860 136.638  0.00  0.00     0.000 C 
BRANCH  50  51
ATOM     51  C           0     134.042 135.453 135.518  0.00  0.00     0.000 C 
BRANCH  51  52
ATOM     52  C           0     134.680 135.130 134.165  0.00  0.00     0.009 C 
BRANCH  52  53
ATOM     53  C           0     133.658 134.416 133.277  0.00  0.00     0.103 C 
BRANCH  53  54
ATOM     54  C           0     134.243 133.119 132.782  0.00  0.00     0.217 C 
ATOM     55  N           0     134.795 132.252 133.654  0.00  0.00    -0.360 N 
ATOM     56  H           0     134.816 132.462 134.600  0.00  0.00     0.162 HD
ATOM     57  O           0     134.218 132.854 131.597  0.00  0.00    -0.274 OA
BRANCH  55  58
ATOM     58  C           0     135.364 130.990 133.172  0.00  0.00     0.142 C 
BRANCH  58  59
ATOM     59  C           0     134.383 129.850 133.449  0.00  0.00     0.142 C 
BRANCH  59  60
ATOM     60  N           0     133.440 129.734 132.333  0.00  0.00    -0.360 N 
ATOM     61  C           0     132.565 128.711 132.294  0.00  0.00     0.217 C 
ATOM     62  O           0     132.557 127.884 133.182  0.00  0.00    -0.274 OA
ATOM     63  H           0     133.447 130.395 131.624  0.00  0.00     0.162 HD
BRANCH  61  64
ATOM     64  C           0     131.595 128.593 131.147  0.00  0.00     0.103 C 
BRANCH  64  65
ATOM     65  C           0     130.202 128.264 131.688  0.00  0.00     0.009 C 
BRANCH  65  66
ATOM     66  C           0     129.445 129.563 131.969  0.00  0.00     0.002 C 
BRANCH  66  67
ATOM     67  C           0     129.763 130.585 130.876  0.00  0.00     0.017 C 
BRANCH  67  68
ATOM     68  C           0     130.471 131.791 131.495  0.00  0.00     0.072 C 
ATOM     69  C           0     129.700 133.096 131.205  0.00  0.00     0.123 A 
ATOM     70  C           0     129.666 134.066 132.390  0.00  0.00     0.119 A 
ATOM     71  N           0     128.285 132.775 130.965  0.00  0.00    -0.335 N 
ATOM     72  C           0     130.411 133.547 133.639  0.00  0.00     0.101 C 
ATOM     73  N           0     128.235 134.198 132.704  0.00  0.00    -0.336 N 
ATOM     74  S           0     130.400 131.726 133.338  0.00  0.00    -0.160 SA
ATOM     75  C           0     127.530 133.438 131.855  0.00  0.00     0.316 A 
ATOM     76  H           0     127.862 134.746 133.412  0.00  0.00     0.164 HD
ATOM     77  O           0     126.318 133.356 131.887  0.00  0.00    -0.247 OA
ATOM     78  H           0     127.951 132.180 130.276  0.00  0.00     0.164 HD
ENDBRANCH  67  68
ENDBRANCH  66  67
ENDBRANCH  65  66
ENDBRANCH  64  65
ENDBRANCH  61  64
ENDBRANCH  59  60
ENDBRANCH  58  59
ENDBRANCH  55  58
ENDBRANCH  53  54
ENDBRANCH  52  53
ENDBRANCH  51  52
ENDBRANCH  50  51
ENDBRANCH  49  50
ENDBRANCH  48  49
ENDBRANCH  47  48
ENDBRANCH   4  47
TORSDOF 27
ENDMDL
MODEL 9
REMARK VINA RESULT:      -6.7      2.370      4.748
REMARK  27 active torsions:
REMARK  status: ('A' for Active; 'I' for Inactive)
REMARK    1  A    between atoms: C_6  and  C_7 
REMARK    2  A    between atoms: C_7  and  O_8 
REMARK    3  A    between atoms: O_8  and  C_9 
REMARK       I    between atoms: C_9  and  N_10 
REMARK    4  A    between atoms: N_10  and  C_11 
REMARK    5  A    between atoms: C_11  and  C_12 
REMARK    6  A    between atoms: C_12  and  N_13 
REMARK       I    between atoms: N_13  and  C_14 
REMARK    7  A    between atoms: C_14  and  C_15 
REMARK    8  A    between atoms: C_15  and  C_16 
REMARK    9  A    between atoms: C_16  and  N_17 
REMARK   10  A    between atoms: C_20  and  C_21 
REMARK   11  A    between atoms: C_21  and  C_22 
REMARK   12  A    between atoms: C_22  and  C_23 
REMARK   13  A    between atoms: C_23  and  C_24 
REMARK   14  A    between atoms: C_24  and  C_25 
REMARK   15  A    between atoms: C_25  and  C_26 
REMARK   16  A    between atoms: C_26  and  C_27 
REMARK   17  A    between atoms: C_27  and  C_28 
REMARK       I    between atoms: C_28  and  N_29 
REMARK   18  A    between atoms: N_29  and  C_30 
REMARK   19  A    between atoms: C_30  and  C_31 
REMARK   20  A    between atoms: C_31  and  N_32 
REMARK       I    between atoms: N_32  and  C_33 
REMARK   21  A    between atoms: C_33  and  C_34 
REMARK   22  A    between atoms: C_34  and  C_35 
REMARK   23  A    between atoms: C_35  and  C_36 
REMARK   24  A    between atoms: C_36  and  C_37 
REMARK   25  A    between atoms: C_37  and  C_38 
REMARK   26  A    between atoms: C_65  and  O_66 
REMARK   27  A    between atoms: C_65  and  O_67 
ROOT
ATOM      1  N           0     136.317 134.304 146.633  0.00  0.00    -0.281 N 
ATOM      2  C           0     135.034 134.640 146.409  0.00  0.00     0.251 A 
ATOM      3  C           0     134.726 134.385 144.985  0.00  0.00     0.087 A 
ATOM      4  C           0     135.848 133.906 144.425  0.00  0.00     0.015 A 
ATOM      5  C           0     136.872 133.861 145.491  0.00  0.00     0.256 A 
ATOM      6  O           0     138.018 133.482 145.360  0.00  0.00    -0.267 OA
ATOM      7  O           0     134.261 135.078 147.236  0.00  0.00    -0.268 OA
ENDROOT
BRANCH   1   8
ATOM      8  C           0     137.005 134.410 147.922  0.00  0.00     0.145 C 
BRANCH   8   9
ATOM      9  C           0     137.374 133.011 148.420  0.00  0.00     0.123 C 
BRANCH   9  10
ATOM     10  C           0     138.816 132.998 148.858  0.00  0.00     0.219 C 
ATOM     11  N           0     139.122 132.869 150.164  0.00  0.00    -0.359 N 
ATOM     12  H           0     138.415 132.785 150.822  0.00  0.00     0.162 HD
ATOM     13  O           0     139.701 133.102 148.035  0.00  0.00    -0.274 OA
BRANCH  11  14
ATOM     14  C           0     140.524 132.856 150.590  0.00  0.00     0.142 C 
BRANCH  14  15
ATOM     15  C           0     140.930 131.429 150.966  0.00  0.00     0.144 C 
BRANCH  15  16
ATOM     16  N           0     139.730 130.606 151.125  0.00  0.00    -0.335 N 
ATOM     17  C           0     139.541 129.529 150.337  0.00  0.00     0.360 C 
ATOM     18  O           0     140.368 129.241 149.495  0.00  0.00    -0.239 OA
ATOM     19  H           0     139.069 130.836 151.798  0.00  0.00     0.164 HD
BRANCH  17  20
ATOM     20  O           0     138.438 128.772 150.484  0.00  0.00    -0.302 OA
BRANCH  20  21
ATOM     21  C           0     137.165 129.235 149.961  0.00  0.00     0.208 C 
BRANCH  21  22
ATOM     22  C           0     136.631 128.221 148.946  0.00  0.00     0.151 C 
ATOM     23  N           0     137.159 128.552 147.626  0.00  0.00    -0.218 N 
ATOM     24  C           0     136.701 129.700 147.006  0.00  0.00     0.672 C 
ATOM     25  H           0     137.814 127.981 147.194  0.00  0.00     0.178 HD
ATOM     26  N           0     137.428 130.367 146.154  0.00  0.00    -0.235 N 
ATOM     27  N           0     135.434 130.096 147.349  0.00  0.00    -0.183 N 
ATOM     28  H           0     138.323 130.062 145.937  0.00  0.00     0.174 HD
ATOM     29  H           0     137.073 131.168 145.735  0.00  0.00     0.174 HD
ATOM     30  C           0     134.483 129.358 148.183  0.00  0.00     0.217 C 
ATOM     31  C           0     134.759 131.364 147.019  0.00  0.00     0.150 C 
ATOM     32  C           0     135.116 128.237 148.992  0.00  0.00     0.180 C 
ATOM     33  C           0     133.823 130.416 149.083  0.00  0.00     0.209 C 
ATOM     34  N           0     133.461 128.697 147.354  0.00  0.00    -0.191 N 
ATOM     35  N           0     134.597 127.006 148.359  0.00  0.00    -0.216 N 
ATOM     36  C           0     133.488 127.352 147.626  0.00  0.00     0.670 C 
ATOM     37  H           0     134.971 126.115 148.446  0.00  0.00     0.178 HD
ATOM     38  N           0     132.575 126.507 147.237  0.00  0.00    -0.235 N 
ATOM     39  H           0     132.656 125.567 147.463  0.00  0.00     0.174 HD
ATOM     40  H           0     131.815 126.818 146.720  0.00  0.00     0.174 HD
ATOM     41  C           0     134.007 131.749 148.314  0.00  0.00     0.093 C 
ATOM     42  H           0     132.866 129.137 146.726  0.00  0.00     0.180 HD
BRANCH  33  43
ATOM     43  O           0     132.433 130.130 149.259  0.00  0.00    -0.362 OA
ATOM     44  H           0     132.213 129.422 148.640  0.00  0.00     0.213 HD
ENDBRANCH  33  43
BRANCH  33  45
ATOM     45  O           0     134.485 130.475 150.347  0.00  0.00    -0.362 OA
ATOM     46  H           0     134.590 131.411 150.564  0.00  0.00     0.213 HD
ENDBRANCH  33  45
ENDBRANCH  21  22
ENDBRANCH  20  21
ENDBRANCH  17  20
ENDBRANCH  15  16
ENDBRANCH  14  15
ENDBRANCH  11  14
ENDBRANCH   9  10
ENDBRANCH   8   9
ENDBRANCH   1   8
BRANCH   4  47
ATOM     47  C           0     136.031 133.497 142.986  0.00  0.00     0.044 C 
BRANCH  47  48
ATOM     48  C           0     135.867 131.981 142.861  0.00  0.00     0.005 C 
BRANCH  48  49
ATOM     49  C           0     134.398 131.607 143.075  0.00  0.00     0.000 C 
BRANCH  49  50
ATOM     50  C           0     133.629 131.790 141.765  0.00  0.00     0.000 C 
BRANCH  50  51
ATOM     51  C           0     132.923 133.146 141.773  0.00  0.00     0.000 C 
BRANCH  51  52
ATOM     52  C           0     132.558 133.539 140.340  0.00  0.00     0.009 C 
BRANCH  52  53
ATOM     53  C           0     133.263 134.847 139.974  0.00  0.00     0.103 C 
BRANCH  53  54
ATOM     54  C           0     133.511 134.885 138.489  0.00  0.00     0.217 C 
ATOM     55  N           0     132.496 135.146 137.642  0.00  0.00    -0.360 N 
ATOM     56  H           0     131.605 135.309 137.988  0.00  0.00     0.162 HD
ATOM     57  O           0     134.626 134.681 138.054  0.00  0.00    -0.274 OA
BRANCH  55  58
ATOM     58  C           0     132.738 135.182 136.196  0.00  0.00     0.142 C 
BRANCH  58  59
ATOM     59  C           0     131.963 136.348 135.579  0.00  0.00     0.142 C 
BRANCH  59  60
ATOM     60  N           0     130.935 135.826 134.674  0.00  0.00    -0.360 N 
ATOM     61  C           0     131.055 136.005 133.344  0.00  0.00     0.217 C 
ATOM     62  O           0     132.013 136.599 132.895  0.00  0.00    -0.274 OA
ATOM     63  H           0     130.170 135.351 135.033  0.00  0.00     0.162 HD
BRANCH  61  64
ATOM     64  C           0     129.998 135.469 132.413  0.00  0.00     0.103 C 
BRANCH  64  65
ATOM     65  C           0     129.355 134.226 133.034  0.00  0.00     0.009 C 
BRANCH  65  66
ATOM     66  C           0     129.224 133.136 131.969  0.00  0.00     0.002 C 
BRANCH  66  67
ATOM     67  C           0     130.586 132.476 131.746  0.00  0.00     0.017 C 
BRANCH  67  68
ATOM     68  C           0     130.392 130.980 131.487  0.00  0.00     0.072 C 
ATOM     69  C           0     131.703 130.202 131.726  0.00  0.00     0.123 A 
ATOM     70  C           0     131.497 128.851 132.420  0.00  0.00     0.119 A 
ATOM     71  N           0     132.548 130.959 132.663  0.00  0.00    -0.335 N 
ATOM     72  C           0     130.020 128.536 132.740  0.00  0.00     0.101 C 
ATOM     73  N           0     132.246 128.978 133.680  0.00  0.00    -0.336 N 
ATOM     74  S           0     129.283 130.227 132.755  0.00  0.00    -0.160 SA
ATOM     75  C           0     132.805 130.195 133.735  0.00  0.00     0.316 A 
ATOM     76  H           0     132.322 128.292 134.362  0.00  0.00     0.164 HD
ATOM     77  O           0     133.482 130.572 134.671  0.00  0.00    -0.247 OA
ATOM     78  H           0     132.867 131.865 132.527  0.00  0.00     0.164 HD
ENDBRANCH  67  68
ENDBRANCH  66  67
ENDBRANCH  65  66
ENDBRANCH  64  65
ENDBRANCH  61  64
ENDBRANCH  59  60
ENDBRANCH  58  59
ENDBRANCH  55  58
ENDBRANCH  53  54
ENDBRANCH  52  53
ENDBRANCH  51  52
ENDBRANCH  50  51
ENDBRANCH  49  50
ENDBRANCH  48  49
ENDBRANCH  47  48
ENDBRANCH   4  47
TORSDOF 27
ENDMDL
