MODEL 1
REMARK VINA RESULT:      -8.2      0.000      0.000
REMARK  13 active torsions:
REMARK  status: ('A' for Active; 'I' for Inactive)
REMARK    1  A    between atoms: C_6  and  C_7 
REMARK    2  A    between atoms: C_7  and  O_8 
REMARK    3  A    between atoms: O_8  and  C_9 
REMARK       I    between atoms: C_9  and  N_10 
REMARK    4  A    between atoms: N_10  and  C_11 
REMARK    5  A    between atoms: C_11  and  C_12 
REMARK    6  A    between atoms: C_12  and  C_13 
REMARK    7  A    between atoms: C_13  and  C_14 
REMARK    8  A    between atoms: C_14  and  C_15 
REMARK    9  A    between atoms: C_15  and  C_16 
REMARK   10  A    between atoms: C_16  and  N_17 
REMARK       I    between atoms: N_17  and  C_18 
REMARK   11  A    between atoms: C_18  and  C_19 
REMARK   12  A    between atoms: C_39  and  O_40 
REMARK   13  A    between atoms: C_39  and  O_41 
ROOT
ATOM      1  N           0     131.097 131.652 135.721  0.00  0.00    -0.235 N 
ATOM      2  H           0     130.347 132.101 136.141  0.00  0.00     0.174 HD
ATOM      3  H           0     131.982 131.715 136.113  0.00  0.00     0.174 HD
ATOM      4  C           0     130.914 130.960 134.632  0.00  0.00     0.672 C 
ATOM      5  N           0     129.671 130.835 134.037  0.00  0.00    -0.218 N 
ATOM      6  C           0     129.612 130.623 132.593  0.00  0.00     0.151 C 
ATOM      7  C           0     130.498 129.483 132.133  0.00  0.00     0.180 C 
ATOM      8  N           0     129.841 128.197 132.455  0.00  0.00    -0.216 N 
ATOM      9  C           0     130.815 127.331 132.887  0.00  0.00     0.670 C 
ATOM     10  N           0     130.684 126.034 132.911  0.00  0.00    -0.235 N 
ATOM     11  H           0     129.857 125.625 132.611  0.00  0.00     0.174 HD
ATOM     12  H           0     131.413 125.478 133.228  0.00  0.00     0.174 HD
ATOM     13  C           0     131.833 129.401 132.857  0.00  0.00     0.217 C 
ATOM     14  N           0     131.945 127.999 133.290  0.00  0.00    -0.191 N 
ATOM     15  N           0     131.943 130.311 133.999  0.00  0.00    -0.183 N 
ATOM     16  C           0     133.387 130.422 134.271  0.00  0.00     0.150 C 
ATOM     17  C           0     134.042 130.439 132.869  0.00  0.00     0.093 C 
ATOM     18  C           0     133.010 129.759 131.935  0.00  0.00     0.209 C 
ATOM     19  H           0     128.859 130.887 134.565  0.00  0.00     0.178 HD
ATOM     20  H           0     128.895 128.002 132.374  0.00  0.00     0.178 HD
ATOM     21  H           0     132.691 127.611 133.774  0.00  0.00     0.180 HD
ENDROOT
BRANCH   6  22
ATOM     22  C           0     130.056 131.907 131.888  0.00  0.00     0.208 C 
BRANCH  22  23
ATOM     23  O           0     129.444 133.053 132.537  0.00  0.00    -0.302 OA
BRANCH  23  24
ATOM     24  C           0     130.125 134.210 132.642  0.00  0.00     0.360 C 
ATOM     25  N           0     131.400 134.204 133.077  0.00  0.00    -0.337 N 
ATOM     26  H           0     131.827 133.366 133.314  0.00  0.00     0.164 HD
ATOM     27  O           0     129.588 135.259 132.345  0.00  0.00    -0.239 OA
BRANCH  25  28
ATOM     28  C           0     132.141 135.463 133.192  0.00  0.00     0.125 C 
BRANCH  28  29
ATOM     29  C           0     131.868 136.091 134.561  0.00  0.00     0.020 C 
BRANCH  29  30
ATOM     30  C           0     132.301 135.120 135.661  0.00  0.00     0.002 C 
BRANCH  30  31
ATOM     31  C           0     133.828 135.037 135.696  0.00  0.00     0.002 C 
BRANCH  31  32
ATOM     32  C           0     134.329 135.448 137.083  0.00  0.00     0.020 C 
BRANCH  32  33
ATOM     33  C           0     133.274 135.092 138.132  0.00  0.00     0.123 C 
BRANCH  33  34
ATOM     34  N           0     133.927 134.870 139.425  0.00  0.00    -0.357 N 
ATOM     35  C           0     133.252 134.272 140.427  0.00  0.00     0.251 C 
ATOM     36  O           0     132.102 133.917 140.257  0.00  0.00    -0.268 OA
ATOM     37  H           0     134.845 135.155 139.560  0.00  0.00     0.162 HD
BRANCH  35  38
ATOM     38  C           0     133.910 134.050 141.730  0.00  0.00     0.032 A 
ATOM     39  C           0     134.106 132.752 142.204  0.00  0.00     0.020 A 
ATOM     40  C           0     134.725 132.550 143.420  0.00  0.00     0.043 A 
ATOM     41  C           0     135.143 133.635 144.176  0.00  0.00     0.116 A 
ATOM     42  C           0     134.945 134.927 143.713  0.00  0.00     0.043 A 
ATOM     43  F           0     135.744 133.432 145.369  0.00  0.00    -0.206 F 
ATOM     44  C           0     134.332 135.139 142.496  0.00  0.00     0.020 A 
ENDBRANCH  35  38
ENDBRANCH  33  34
ENDBRANCH  32  33
ENDBRANCH  31  32
ENDBRANCH  30  31
ENDBRANCH  29  30
ENDBRANCH  28  29
ENDBRANCH  25  28
ENDBRANCH  23  24
ENDBRANCH  22  23
ENDBRANCH   6  22
BRANCH  18  45
ATOM     45  O           0     133.568 128.580 131.350  0.00  0.00    -0.362 OA
ATOM     46  H           0     134.529 128.665 131.415  0.00  0.00     0.213 HD
ENDBRANCH  18  45
BRANCH  18  47
ATOM     47  O           0     132.585 130.668 130.917  0.00  0.00    -0.362 OA
ATOM     48  H           0     131.814 131.138 131.266  0.00  0.00     0.213 HD
ENDBRANCH  18  47
TORSDOF 13
ENDMDL
MODEL 2
REMARK VINA RESULT:      -8.2      4.089     11.141
REMARK  13 active torsions:
REMARK  status: ('A' for Active; 'I' for Inactive)
REMARK    1  A    between atoms: C_6  and  C_7 
REMARK    2  A    between atoms: C_7  and  O_8 
REMARK    3  A    between atoms: O_8  and  C_9 
REMARK       I    between atoms: C_9  and  N_10 
REMARK    4  A    between atoms: N_10  and  C_11 
REMARK    5  A    between atoms: C_11  and  C_12 
REMARK    6  A    between atoms: C_12  and  C_13 
REMARK    7  A    between atoms: C_13  and  C_14 
REMARK    8  A    between atoms: C_14  and  C_15 
REMARK    9  A    between atoms: C_15  and  C_16 
REMARK   10  A    between atoms: C_16  and  N_17 
REMARK       I    between atoms: N_17  and  C_18 
REMARK   11  A    between atoms: C_18  and  C_19 
REMARK   12  A    between atoms: C_39  and  O_40 
REMARK   13  A    between atoms: C_39  and  O_41 
ROOT
ATOM      1  N           0     134.035 130.909 142.548  0.00  0.00    -0.235 N 
ATOM      2  H           0     133.665 130.735 141.668  0.00  0.00     0.174 HD
ATOM      3  H           0     133.830 130.314 143.287  0.00  0.00     0.174 HD
ATOM      4  C           0     134.812 131.938 142.736  0.00  0.00     0.672 C 
ATOM      5  N           0     135.139 132.812 141.713  0.00  0.00    -0.218 N 
ATOM      6  C           0     135.446 134.197 142.058  0.00  0.00     0.151 C 
ATOM      7  C           0     136.483 134.310 143.158  0.00  0.00     0.180 C 
ATOM      8  N           0     137.823 134.043 142.590  0.00  0.00    -0.216 N 
ATOM      9  C           0     138.523 133.301 143.508  0.00  0.00     0.670 C 
ATOM     10  N           0     139.821 133.188 143.524  0.00  0.00    -0.235 N 
ATOM     11  H           0     140.355 133.646 142.856  0.00  0.00     0.174 HD
ATOM     12  H           0     140.253 132.646 144.202  0.00  0.00     0.174 HD
ATOM     13  C           0     136.340 133.270 144.257  0.00  0.00     0.217 C 
ATOM     14  N           0     137.686 132.691 144.411  0.00  0.00    -0.191 N 
ATOM     15  N           0     135.354 132.228 143.961  0.00  0.00    -0.183 N 
ATOM     16  C           0     135.034 131.614 145.261  0.00  0.00     0.150 C 
ATOM     17  C           0     135.017 132.800 146.254  0.00  0.00     0.093 C 
ATOM     18  C           0     135.886 133.896 145.585  0.00  0.00     0.209 C 
ATOM     19  H           0     135.163 132.512 140.791  0.00  0.00     0.178 HD
ATOM     20  H           0     138.148 134.340 141.725  0.00  0.00     0.178 HD
ATOM     21  H           0     137.938 132.001 145.043  0.00  0.00     0.180 HD
ENDROOT
BRANCH   6  22
ATOM     22  C           0     134.161 134.887 142.523  0.00  0.00     0.208 C 
BRANCH  22  23
ATOM     23  O           0     133.629 135.698 141.442  0.00  0.00    -0.302 OA
BRANCH  23  24
ATOM     24  C           0     133.266 135.119 140.281  0.00  0.00     0.360 C 
ATOM     25  N           0     133.659 135.656 139.109  0.00  0.00    -0.337 N 
ATOM     26  H           0     134.203 136.459 139.102  0.00  0.00     0.164 HD
ATOM     27  O           0     132.584 134.114 140.291  0.00  0.00    -0.239 OA
BRANCH  25  28
ATOM     28  C           0     133.264 135.026 137.847  0.00  0.00     0.125 C 
BRANCH  28  29
ATOM     29  C           0     134.362 135.242 136.804  0.00  0.00     0.020 C 
BRANCH  29  30
ATOM     30  C           0     133.736 135.301 135.409  0.00  0.00     0.002 C 
BRANCH  30  31
ATOM     31  C           0     132.293 134.797 135.477  0.00  0.00     0.002 C 
BRANCH  31  32
ATOM     32  C           0     132.182 133.464 134.732  0.00  0.00     0.020 C 
BRANCH  32  33
ATOM     33  C           0     130.766 132.908 134.890  0.00  0.00     0.123 C 
BRANCH  33  34
ATOM     34  N           0     130.760 131.484 134.546  0.00  0.00    -0.357 N 
ATOM     35  C           0     130.192 131.071 133.395  0.00  0.00     0.251 C 
ATOM     36  O           0     129.686 131.881 132.643  0.00  0.00    -0.268 OA
ATOM     37  H           0     131.164 130.838 135.147  0.00  0.00     0.162 HD
BRANCH  35  38
ATOM     38  C           0     130.185 129.635 133.049  0.00  0.00     0.032 A 
ATOM     39  C           0     128.988 129.003 132.709  0.00  0.00     0.020 A 
ATOM     40  C           0     128.988 127.663 132.382  0.00  0.00     0.043 A 
ATOM     41  C           0     130.173 126.942 132.402  0.00  0.00     0.116 A 
ATOM     42  C           0     131.363 127.564 132.745  0.00  0.00     0.043 A 
ATOM     43  F           0     130.167 125.628 132.086  0.00  0.00    -0.206 F 
ATOM     44  C           0     131.375 128.904 133.069  0.00  0.00     0.020 A 
ENDBRANCH  35  38
ENDBRANCH  33  34
ENDBRANCH  32  33
ENDBRANCH  31  32
ENDBRANCH  30  31
ENDBRANCH  29  30
ENDBRANCH  28  29
ENDBRANCH  25  28
ENDBRANCH  23  24
ENDBRANCH  22  23
ENDBRANCH   6  22
BRANCH  18  45
ATOM     45  O           0     137.013 134.208 146.407  0.00  0.00    -0.362 OA
ATOM     46  H           0     137.790 134.192 145.833  0.00  0.00     0.213 HD
ENDBRANCH  18  45
BRANCH  18  47
ATOM     47  O           0     135.107 135.069 145.341  0.00  0.00    -0.362 OA
ATOM     48  H           0     134.564 135.213 146.129  0.00  0.00     0.213 HD
ENDBRANCH  18  47
TORSDOF 13
ENDMDL
MODEL 3
REMARK VINA RESULT:      -8.1      6.063     12.957
REMARK  13 active torsions:
REMARK  status: ('A' for Active; 'I' for Inactive)
REMARK    1  A    between atoms: C_6  and  C_7 
REMARK    2  A    between atoms: C_7  and  O_8 
REMARK    3  A    between atoms: O_8  and  C_9 
REMARK       I    between atoms: C_9  and  N_10 
REMARK    4  A    between atoms: N_10  and  C_11 
REMARK    5  A    between atoms: C_11  and  C_12 
REMARK    6  A    between atoms: C_12  and  C_13 
REMARK    7  A    between atoms: C_13  and  C_14 
REMARK    8  A    between atoms: C_14  and  C_15 
REMARK    9  A    between atoms: C_15  and  C_16 
REMARK   10  A    between atoms: C_16  and  N_17 
REMARK       I    between atoms: N_17  and  C_18 
REMARK   11  A    between atoms: C_18  and  C_19 
REMARK   12  A    between atoms: C_39  and  O_40 
REMARK   13  A    between atoms: C_39  and  O_41 
ROOT
ATOM      1  N           0     139.867 129.267 147.584  0.00  0.00    -0.235 N 
ATOM      2  H           0     140.826 129.344 147.451  0.00  0.00     0.174 HD
ATOM      3  H           0     139.476 128.411 147.819  0.00  0.00     0.174 HD
ATOM      4  C           0     139.107 130.317 147.451  0.00  0.00     0.672 C 
ATOM      5  N           0     139.617 131.561 147.123  0.00  0.00    -0.218 N 
ATOM      6  C           0     138.757 132.494 146.399  0.00  0.00     0.151 C 
ATOM      7  C           0     137.403 132.671 147.059  0.00  0.00     0.180 C 
ATOM      8  N           0     137.549 133.554 148.236  0.00  0.00    -0.216 N 
ATOM      9  C           0     136.747 133.053 149.232  0.00  0.00     0.670 C 
ATOM     10  N           0     136.340 133.741 150.261  0.00  0.00    -0.235 N 
ATOM     11  H           0     136.604 134.670 150.358  0.00  0.00     0.174 HD
ATOM     12  H           0     135.774 133.325 150.930  0.00  0.00     0.174 HD
ATOM     13  C           0     136.818 131.391 147.633  0.00  0.00     0.217 C 
ATOM     14  N           0     136.426 131.736 149.009  0.00  0.00    -0.191 N 
ATOM     15  N           0     137.748 130.260 147.623  0.00  0.00    -0.183 N 
ATOM     16  C           0     136.905 129.061 147.774  0.00  0.00     0.150 C 
ATOM     17  C           0     135.644 129.369 146.932  0.00  0.00     0.093 C 
ATOM     18  C           0     135.589 130.915 146.842  0.00  0.00     0.209 C 
ATOM     19  H           0     140.524 131.808 147.366  0.00  0.00     0.178 HD
ATOM     20  H           0     138.109 134.344 148.294  0.00  0.00     0.178 HD
ATOM     21  H           0     136.009 131.138 149.648  0.00  0.00     0.180 HD
ENDROOT
BRANCH   6  22
ATOM     22  C           0     138.546 131.970 144.977  0.00  0.00     0.208 C 
BRANCH  22  23
ATOM     23  O           0     138.999 132.966 144.022  0.00  0.00    -0.302 OA
BRANCH  23  24
ATOM     24  C           0     138.133 133.878 143.541  0.00  0.00     0.360 C 
ATOM     25  N           0     136.814 133.749 143.783  0.00  0.00    -0.337 N 
ATOM     26  H           0     136.488 132.998 144.304  0.00  0.00     0.164 HD
ATOM     27  O           0     138.542 134.817 142.887  0.00  0.00    -0.239 OA
BRANCH  25  28
ATOM     28  C           0     135.872 134.741 143.258  0.00  0.00     0.125 C 
BRANCH  28  29
ATOM     29  C           0     134.485 134.108 143.127  0.00  0.00     0.020 C 
BRANCH  29  30
ATOM     30  C           0     134.310 133.553 141.712  0.00  0.00     0.002 C 
BRANCH  30  31
ATOM     31  C           0     132.861 133.099 141.519  0.00  0.00     0.002 C 
BRANCH  31  32
ATOM     32  C           0     132.329 133.645 140.191  0.00  0.00     0.020 C 
BRANCH  32  33
ATOM     33  C           0     133.262 134.746 139.682  0.00  0.00     0.123 C 
BRANCH  33  34
ATOM     34  N           0     132.904 135.091 138.304  0.00  0.00    -0.357 N 
ATOM     35  C           0     133.835 135.034 137.332  0.00  0.00     0.251 C 
ATOM     36  O           0     134.972 134.696 137.599  0.00  0.00    -0.268 OA
ATOM     37  H           0     131.997 135.361 138.092  0.00  0.00     0.162 HD
BRANCH  35  38
ATOM     38  C           0     133.475 135.382 135.943  0.00  0.00     0.032 A 
ATOM     39  C           0     132.233 135.956 135.664  0.00  0.00     0.020 A 
ATOM     40  C           0     131.903 136.283 134.366  0.00  0.00     0.043 A 
ATOM     41  C           0     132.799 136.034 133.337  0.00  0.00     0.116 A 
ATOM     42  C           0     134.030 135.459 133.607  0.00  0.00     0.043 A 
ATOM     43  F           0     132.469 136.353 132.066  0.00  0.00    -0.206 F 
ATOM     44  C           0     134.372 135.132 134.902  0.00  0.00     0.020 A 
ENDBRANCH  35  38
ENDBRANCH  33  34
ENDBRANCH  32  33
ENDBRANCH  31  32
ENDBRANCH  30  31
ENDBRANCH  29  30
ENDBRANCH  28  29
ENDBRANCH  25  28
ENDBRANCH  23  24
ENDBRANCH  22  23
ENDBRANCH   6  22
BRANCH  18  45
ATOM     45  O           0     134.385 131.406 147.439  0.00  0.00    -0.362 OA
ATOM     46  H           0     134.649 131.938 148.202  0.00  0.00     0.213 HD
ENDBRANCH  18  45
BRANCH  18  47
ATOM     47  O           0     135.679 131.339 145.481  0.00  0.00    -0.362 OA
ATOM     48  H           0     135.085 130.769 144.971  0.00  0.00     0.213 HD
ENDBRANCH  18  47
TORSDOF 13
ENDMDL
MODEL 4
REMARK VINA RESULT:      -8.1      2.945      5.428
REMARK  13 active torsions:
REMARK  status: ('A' for Active; 'I' for Inactive)
REMARK    1  A    between atoms: C_6  and  C_7 
REMARK    2  A    between atoms: C_7  and  O_8 
REMARK    3  A    between atoms: O_8  and  C_9 
REMARK       I    between atoms: C_9  and  N_10 
REMARK    4  A    between atoms: N_10  and  C_11 
REMARK    5  A    between atoms: C_11  and  C_12 
REMARK    6  A    between atoms: C_12  and  C_13 
REMARK    7  A    between atoms: C_13  and  C_14 
REMARK    8  A    between atoms: C_14  and  C_15 
REMARK    9  A    between atoms: C_15  and  C_16 
REMARK   10  A    between atoms: C_16  and  N_17 
REMARK       I    between atoms: N_17  and  C_18 
REMARK   11  A    between atoms: C_18  and  C_19 
REMARK   12  A    between atoms: C_39  and  O_40 
REMARK   13  A    between atoms: C_39  and  O_41 
ROOT
ATOM      1  N           0     133.910 134.166 132.105  0.00  0.00    -0.235 N 
ATOM      2  H           0     134.804 134.206 132.479  0.00  0.00     0.174 HD
ATOM      3  H           0     133.758 134.421 131.181  0.00  0.00     0.174 HD
ATOM      4  C           0     132.914 133.764 132.842  0.00  0.00     0.672 C 
ATOM      5  N           0     133.080 133.384 134.163  0.00  0.00    -0.218 N 
ATOM      6  C           0     131.954 133.552 135.078  0.00  0.00     0.151 C 
ATOM      7  C           0     130.672 132.944 134.544  0.00  0.00     0.180 C 
ATOM      8  N           0     130.725 131.475 134.711  0.00  0.00    -0.216 N 
ATOM      9  C           0     130.171 130.910 133.588  0.00  0.00     0.670 C 
ATOM     10  N           0     129.721 129.688 133.529  0.00  0.00    -0.235 N 
ATOM     11  H           0     129.767 129.116 134.311  0.00  0.00     0.174 HD
ATOM     12  H           0     129.340 129.351 132.703  0.00  0.00     0.174 HD
ATOM     13  C           0     130.467 133.134 133.050  0.00  0.00     0.217 C 
ATOM     14  N           0     130.148 131.792 132.536  0.00  0.00    -0.191 N 
ATOM     15  N           0     131.632 133.694 132.361  0.00  0.00    -0.183 N 
ATOM     16  C           0     131.115 134.214 131.083  0.00  0.00     0.150 C 
ATOM     17  C           0     129.738 134.820 131.442  0.00  0.00     0.093 C 
ATOM     18  C           0     129.310 134.100 132.747  0.00  0.00     0.209 C 
ATOM     19  H           0     133.922 133.017 134.473  0.00  0.00     0.178 HD
ATOM     20  H           0     131.086 130.998 135.474  0.00  0.00     0.178 HD
ATOM     21  H           0     129.952 131.569 131.613  0.00  0.00     0.180 HD
ENDROOT
BRANCH   6  22
ATOM     22  C           0     131.728 135.047 135.315  0.00  0.00     0.208 C 
BRANCH  22  23
ATOM     23  O           0     132.948 135.646 135.826  0.00  0.00    -0.302 OA
BRANCH  23  24
ATOM     24  C           0     133.438 135.260 137.020  0.00  0.00     0.360 C 
ATOM     25  N           0     132.670 135.349 138.124  0.00  0.00    -0.337 N 
ATOM     26  H           0     131.765 135.691 138.058  0.00  0.00     0.164 HD
ATOM     27  O           0     134.573 134.833 137.101  0.00  0.00    -0.239 OA
BRANCH  25  28
ATOM     28  C           0     133.204 134.930 139.422  0.00  0.00     0.125 C 
BRANCH  28  29
ATOM     29  C           0     132.417 133.719 139.930  0.00  0.00     0.020 C 
BRANCH  29  30
ATOM     30  C           0     132.883 133.366 141.344  0.00  0.00     0.002 C 
BRANCH  30  31
ATOM     31  C           0     134.320 133.852 141.543  0.00  0.00     0.002 C 
BRANCH  31  32
ATOM     32  C           0     134.463 134.458 142.941  0.00  0.00     0.020 C 
BRANCH  32  33
ATOM     33  C           0     135.895 134.252 143.442  0.00  0.00     0.123 C 
BRANCH  33  34
ATOM     34  N           0     135.893 133.283 144.540  0.00  0.00    -0.357 N 
ATOM     35  C           0     136.397 132.048 144.349  0.00  0.00     0.251 C 
ATOM     36  O           0     136.854 131.739 143.266  0.00  0.00    -0.268 OA
ATOM     37  H           0     135.527 133.530 145.404  0.00  0.00     0.162 HD
BRANCH  35  38
ATOM     38  C           0     136.393 131.070 145.456  0.00  0.00     0.032 A 
ATOM     39  C           0     135.286 130.243 145.657  0.00  0.00     0.020 A 
ATOM     40  C           0     135.290 129.329 146.689  0.00  0.00     0.043 A 
ATOM     41  C           0     136.387 129.237 147.533  0.00  0.00     0.116 A 
ATOM     42  C           0     137.486 130.060 147.342  0.00  0.00     0.043 A 
ATOM     43  F           0     136.384 128.343 148.546  0.00  0.00    -0.206 F 
ATOM     44  C           0     137.494 130.974 146.310  0.00  0.00     0.020 A 
ENDBRANCH  35  38
ENDBRANCH  33  34
ENDBRANCH  32  33
ENDBRANCH  31  32
ENDBRANCH  30  31
ENDBRANCH  29  30
ENDBRANCH  28  29
ENDBRANCH  25  28
ENDBRANCH  23  24
ENDBRANCH  22  23
ENDBRANCH   6  22
BRANCH  18  45
ATOM     45  O           0     128.093 133.378 132.541  0.00  0.00    -0.362 OA
ATOM     46  H           0     128.340 132.503 132.212  0.00  0.00     0.213 HD
ENDBRANCH  18  45
BRANCH  18  47
ATOM     47  O           0     129.158 135.043 133.809  0.00  0.00    -0.362 OA
ATOM     48  H           0     128.366 134.784 134.302  0.00  0.00     0.213 HD
ENDBRANCH  18  47
TORSDOF 13
ENDMDL
MODEL 5
REMARK VINA RESULT:      -8.1      4.770     11.717
REMARK  13 active torsions:
REMARK  status: ('A' for Active; 'I' for Inactive)
REMARK    1  A    between atoms: C_6  and  C_7 
REMARK    2  A    between atoms: C_7  and  O_8 
REMARK    3  A    between atoms: O_8  and  C_9 
REMARK       I    between atoms: C_9  and  N_10 
REMARK    4  A    between atoms: N_10  and  C_11 
REMARK    5  A    between atoms: C_11  and  C_12 
REMARK    6  A    between atoms: C_12  and  C_13 
REMARK    7  A    between atoms: C_13  and  C_14 
REMARK    8  A    between atoms: C_14  and  C_15 
REMARK    9  A    between atoms: C_15  and  C_16 
REMARK   10  A    between atoms: C_16  and  N_17 
REMARK       I    between atoms: N_17  and  C_18 
REMARK   11  A    between atoms: C_18  and  C_19 
REMARK   12  A    between atoms: C_39  and  O_40 
REMARK   13  A    between atoms: C_39  and  O_41 
ROOT
ATOM      1  N           0     135.080 130.477 143.260  0.00  0.00    -0.235 N 
ATOM      2  H           0     134.911 130.323 142.317  0.00  0.00     0.174 HD
ATOM      3  H           0     134.653 129.917 143.928  0.00  0.00     0.174 HD
ATOM      4  C           0     135.884 131.433 143.629  0.00  0.00     0.672 C 
ATOM      5  N           0     136.521 132.255 142.715  0.00  0.00    -0.218 N 
ATOM      6  C           0     136.868 133.612 143.129  0.00  0.00     0.151 C 
ATOM      7  C           0     137.627 133.647 144.441  0.00  0.00     0.180 C 
ATOM      8  N           0     139.031 133.249 144.200  0.00  0.00    -0.216 N 
ATOM      9  C           0     139.424 132.461 145.253  0.00  0.00     0.670 C 
ATOM     10  N           0     140.667 132.229 145.571  0.00  0.00    -0.235 N 
ATOM     11  H           0     141.382 132.624 145.048  0.00  0.00     0.174 HD
ATOM     12  H           0     140.876 131.661 146.329  0.00  0.00     0.174 HD
ATOM     13  C           0     137.135 132.644 145.471  0.00  0.00     0.217 C 
ATOM     14  N           0     138.347 131.947 145.932  0.00  0.00    -0.191 N 
ATOM     15  N           0     136.152 131.693 144.948  0.00  0.00    -0.183 N 
ATOM     16  C           0     135.481 131.134 146.135  0.00  0.00     0.150 C 
ATOM     17  C           0     135.344 132.334 147.102  0.00  0.00     0.093 C 
ATOM     18  C           0     136.444 133.333 146.660  0.00  0.00     0.209 C 
ATOM     19  H           0     136.731 131.938 141.823  0.00  0.00     0.178 HD
ATOM     20  H           0     139.574 133.499 143.437  0.00  0.00     0.178 HD
ATOM     21  H           0     138.379 131.247 146.603  0.00  0.00     0.180 HD
ENDROOT
BRANCH   6  22
ATOM     22  C           0     135.581 134.425 143.284  0.00  0.00     0.208 C 
BRANCH  22  23
ATOM     23  O           0     134.563 133.895 142.393  0.00  0.00    -0.302 OA
BRANCH  23  24
ATOM     24  C           0     134.011 134.687 141.454  0.00  0.00     0.360 C 
ATOM     25  N           0     133.869 134.236 140.192  0.00  0.00    -0.337 N 
ATOM     26  H           0     134.163 133.341 139.961  0.00  0.00     0.164 HD
ATOM     27  O           0     133.643 135.808 141.745  0.00  0.00    -0.239 OA
BRANCH  25  28
ATOM     28  C           0     133.269 135.098 139.170  0.00  0.00     0.125 C 
BRANCH  28  29
ATOM     29  C           0     134.068 134.979 137.871  0.00  0.00     0.020 C 
BRANCH  29  30
ATOM     30  C           0     133.155 135.286 136.682  0.00  0.00     0.002 C 
BRANCH  30  31
ATOM     31  C           0     133.984 135.306 135.395  0.00  0.00     0.002 C 
BRANCH  31  32
ATOM     32  C           0     133.219 134.582 134.285  0.00  0.00     0.020 C 
BRANCH  32  33
ATOM     33  C           0     133.672 133.121 134.224  0.00  0.00     0.123 C 
BRANCH  33  34
ATOM     34  N           0     132.569 132.289 133.735  0.00  0.00    -0.357 N 
ATOM     35  C           0     132.554 130.968 134.000  0.00  0.00     0.251 C 
ATOM     36  O           0     133.455 130.467 134.644  0.00  0.00    -0.268 OA
ATOM     37  H           0     131.851 132.689 133.220  0.00  0.00     0.162 HD
BRANCH  35  38
ATOM     38  C           0     131.443 130.129 133.506  0.00  0.00     0.032 A 
ATOM     39  C           0     131.702 128.859 132.987  0.00  0.00     0.020 A 
ATOM     40  C           0     130.660 128.078 132.531  0.00  0.00     0.043 A 
ATOM     41  C           0     129.360 128.557 132.579  0.00  0.00     0.116 A 
ATOM     42  C           0     129.098 129.819 133.088  0.00  0.00     0.043 A 
ATOM     43  F           0     128.343 127.790 132.127  0.00  0.00    -0.206 F 
ATOM     44  C           0     130.132 130.606 133.550  0.00  0.00     0.020 A 
ENDBRANCH  35  38
ENDBRANCH  33  34
ENDBRANCH  32  33
ENDBRANCH  31  32
ENDBRANCH  30  31
ENDBRANCH  29  30
ENDBRANCH  28  29
ENDBRANCH  25  28
ENDBRANCH  23  24
ENDBRANCH  22  23
ENDBRANCH   6  22
BRANCH  18  45
ATOM     45  O           0     137.373 133.553 147.724  0.00  0.00    -0.362 OA
ATOM     46  H           0     138.250 133.609 147.321  0.00  0.00     0.213 HD
ENDBRANCH  18  45
BRANCH  18  47
ATOM     47  O           0     135.857 134.568 146.246  0.00  0.00    -0.362 OA
ATOM     48  H           0     135.332 134.892 146.991  0.00  0.00     0.213 HD
ENDBRANCH  18  47
TORSDOF 13
ENDMDL
MODEL 6
REMARK VINA RESULT:      -8.0      6.299     13.028
REMARK  13 active torsions:
REMARK  status: ('A' for Active; 'I' for Inactive)
REMARK    1  A    between atoms: C_6  and  C_7 
REMARK    2  A    between atoms: C_7  and  O_8 
REMARK    3  A    between atoms: O_8  and  C_9 
REMARK       I    between atoms: C_9  and  N_10 
REMARK    4  A    between atoms: N_10  and  C_11 
REMARK    5  A    between atoms: C_11  and  C_12 
REMARK    6  A    between atoms: C_12  and  C_13 
REMARK    7  A    between atoms: C_13  and  C_14 
REMARK    8  A    between atoms: C_14  and  C_15 
REMARK    9  A    between atoms: C_15  and  C_16 
REMARK   10  A    between atoms: C_16  and  N_17 
REMARK       I    between atoms: N_17  and  C_18 
REMARK   11  A    between atoms: C_18  and  C_19 
REMARK   12  A    between atoms: C_39  and  O_40 
REMARK   13  A    between atoms: C_39  and  O_41 
ROOT
ATOM      1  N           0     134.879 131.441 145.485  0.00  0.00    -0.235 N 
ATOM      2  H           0     134.766 131.290 144.533  0.00  0.00     0.174 HD
ATOM      3  H           0     134.130 131.749 146.019  0.00  0.00     0.174 HD
ATOM      4  C           0     136.035 131.223 146.046  0.00  0.00     0.672 C 
ATOM      5  N           0     137.131 130.777 145.328  0.00  0.00    -0.218 N 
ATOM      6  C           0     138.463 131.136 145.805  0.00  0.00     0.151 C 
ATOM      7  C           0     138.666 130.813 147.272  0.00  0.00     0.180 C 
ATOM      8  N           0     138.890 129.359 147.422  0.00  0.00    -0.216 N 
ATOM      9  C           0     138.223 128.951 148.551  0.00  0.00     0.670 C 
ATOM     10  N           0     138.477 127.846 149.194  0.00  0.00    -0.235 N 
ATOM     11  H           0     139.177 127.252 148.878  0.00  0.00     0.174 HD
ATOM     12  H           0     137.967 127.617 149.986  0.00  0.00     0.174 HD
ATOM     13  C           0     137.451 131.087 148.143  0.00  0.00     0.217 C 
ATOM     14  N           0     137.255 129.852 148.921  0.00  0.00    -0.191 N 
ATOM     15  N           0     136.244 131.425 147.385  0.00  0.00    -0.183 N 
ATOM     16  C           0     135.346 132.077 148.354  0.00  0.00     0.150 C 
ATOM     17  C           0     136.286 132.933 149.235  0.00  0.00     0.093 C 
ATOM     18  C           0     137.681 132.273 149.094  0.00  0.00     0.209 C 
ATOM     19  H           0     137.017 130.239 144.529  0.00  0.00     0.178 HD
ATOM     20  H           0     139.413 128.796 146.831  0.00  0.00     0.178 HD
ATOM     21  H           0     136.562 129.702 149.583  0.00  0.00     0.180 HD
ENDROOT
BRANCH   6  22
ATOM     22  C           0     138.673 132.638 145.599  0.00  0.00     0.208 C 
BRANCH  22  23
ATOM     23  O           0     138.810 132.918 144.180  0.00  0.00    -0.302 OA
BRANCH  23  24
ATOM     24  C           0     137.945 133.751 143.571  0.00  0.00     0.360 C 
ATOM     25  N           0     136.825 134.143 144.210  0.00  0.00    -0.337 N 
ATOM     26  H           0     136.643 133.825 145.108  0.00  0.00     0.164 HD
ATOM     27  O           0     138.173 134.147 142.446  0.00  0.00    -0.239 OA
BRANCH  25  28
ATOM     28  C           0     135.883 135.048 143.547  0.00  0.00     0.125 C 
BRANCH  28  29
ATOM     29  C           0     134.560 134.319 143.305  0.00  0.00     0.020 C 
BRANCH  29  30
ATOM     30  C           0     134.072 134.608 141.884  0.00  0.00     0.002 C 
BRANCH  30  31
ATOM     31  C           0     133.193 133.452 141.402  0.00  0.00     0.002 C 
BRANCH  31  32
ATOM     32  C           0     132.550 133.823 140.063  0.00  0.00     0.020 C 
BRANCH  32  33
ATOM     33  C           0     133.213 135.088 139.514  0.00  0.00     0.123 C 
BRANCH  33  34
ATOM     34  N           0     132.813 135.281 138.117  0.00  0.00    -0.357 N 
ATOM     35  C           0     133.734 135.209 137.137  0.00  0.00     0.251 C 
ATOM     36  O           0     134.897 134.983 137.411  0.00  0.00    -0.268 OA
ATOM     37  H           0     131.885 135.462 137.900  0.00  0.00     0.162 HD
BRANCH  35  38
ATOM     38  C           0     133.331 135.405 135.729  0.00  0.00     0.032 A 
ATOM     39  C           0     132.096 135.984 135.428  0.00  0.00     0.020 A 
ATOM     40  C           0     131.727 136.169 134.113  0.00  0.00     0.043 A 
ATOM     41  C           0     132.575 135.771 133.090  0.00  0.00     0.116 A 
ATOM     42  C           0     133.799 135.190 133.383  0.00  0.00     0.043 A 
ATOM     43  F           0     132.206 135.950 131.802  0.00  0.00    -0.206 F 
ATOM     44  C           0     134.180 135.005 134.696  0.00  0.00     0.020 A 
ENDBRANCH  35  38
ENDBRANCH  33  34
ENDBRANCH  32  33
ENDBRANCH  31  32
ENDBRANCH  30  31
ENDBRANCH  29  30
ENDBRANCH  28  29
ENDBRANCH  25  28
ENDBRANCH  23  24
ENDBRANCH  22  23
ENDBRANCH   6  22
BRANCH  18  45
ATOM     45  O           0     138.146 131.815 150.367  0.00  0.00    -0.362 OA
ATOM     46  H           0     138.479 132.591 150.837  0.00  0.00     0.213 HD
ENDBRANCH  18  45
BRANCH  18  47
ATOM     47  O           0     138.613 133.194 148.524  0.00  0.00    -0.362 OA
ATOM     48  H           0     139.215 132.676 147.972  0.00  0.00     0.213 HD
ENDBRANCH  18  47
TORSDOF 13
ENDMDL
MODEL 7
REMARK VINA RESULT:      -8.0      6.669     13.054
REMARK  13 active torsions:
REMARK  status: ('A' for Active; 'I' for Inactive)
REMARK    1  A    between atoms: C_6  and  C_7 
REMARK    2  A    between atoms: C_7  and  O_8 
REMARK    3  A    between atoms: O_8  and  C_9 
REMARK       I    between atoms: C_9  and  N_10 
REMARK    4  A    between atoms: N_10  and  C_11 
REMARK    5  A    between atoms: C_11  and  C_12 
REMARK    6  A    between atoms: C_12  and  C_13 
REMARK    7  A    between atoms: C_13  and  C_14 
REMARK    8  A    between atoms: C_14  and  C_15 
REMARK    9  A    between atoms: C_15  and  C_16 
REMARK   10  A    between atoms: C_16  and  N_17 
REMARK       I    between atoms: N_17  and  C_18 
REMARK   11  A    between atoms: C_18  and  C_19 
REMARK   12  A    between atoms: C_39  and  O_40 
REMARK   13  A    between atoms: C_39  and  O_41 
ROOT
ATOM      1  N           0     136.480 132.593 150.153  0.00  0.00    -0.235 N 
ATOM      2  H           0     135.613 132.705 150.574  0.00  0.00     0.174 HD
ATOM      3  H           0     137.201 133.211 150.353  0.00  0.00     0.174 HD
ATOM      4  C           0     136.677 131.609 149.321  0.00  0.00     0.672 C 
ATOM      5  N           0     135.683 130.699 149.007  0.00  0.00    -0.218 N 
ATOM      6  C           0     135.721 130.057 147.696  0.00  0.00     0.151 C 
ATOM      7  C           0     137.072 129.444 147.385  0.00  0.00     0.180 C 
ATOM      8  N           0     137.210 128.172 148.128  0.00  0.00    -0.216 N 
ATOM      9  C           0     138.504 128.096 148.583  0.00  0.00     0.670 C 
ATOM     10  N           0     139.087 126.991 148.952  0.00  0.00    -0.235 N 
ATOM     11  H           0     138.602 126.152 148.915  0.00  0.00     0.174 HD
ATOM     12  H           0     140.005 127.007 149.264  0.00  0.00     0.174 HD
ATOM     13  C           0     138.255 130.272 147.857  0.00  0.00     0.217 C 
ATOM     14  N           0     139.108 129.330 148.599  0.00  0.00    -0.191 N 
ATOM     15  N           0     137.881 131.412 148.698  0.00  0.00    -0.183 N 
ATOM     16  C           0     139.047 132.313 148.673  0.00  0.00     0.150 C 
ATOM     17  C           0     139.567 132.230 147.218  0.00  0.00     0.093 C 
ATOM     18  C           0     139.042 130.874 146.681  0.00  0.00     0.209 C 
ATOM     19  H           0     134.978 130.493 149.641  0.00  0.00     0.178 HD
ATOM     20  H           0     136.514 127.512 148.269  0.00  0.00     0.178 HD
ATOM     21  H           0     139.953 129.541 149.025  0.00  0.00     0.180 HD
ENDROOT
BRANCH   6  22
ATOM     22  C           0     135.397 131.102 146.625  0.00  0.00     0.208 C 
BRANCH  22  23
ATOM     23  O           0     135.243 130.444 145.339  0.00  0.00    -0.302 OA
BRANCH  23  24
ATOM     24  C           0     135.105 131.180 144.220  0.00  0.00     0.360 C 
ATOM     25  N           0     135.795 132.330 144.080  0.00  0.00    -0.337 N 
ATOM     26  H           0     136.389 132.627 144.786  0.00  0.00     0.164 HD
ATOM     27  O           0     134.359 130.808 143.336  0.00  0.00    -0.239 OA
BRANCH  25  28
ATOM     28  C           0     135.644 133.131 142.862  0.00  0.00     0.125 C 
BRANCH  28  29
ATOM     29  C           0     135.008 134.478 143.214  0.00  0.00     0.020 C 
BRANCH  29  30
ATOM     30  C           0     133.992 134.858 142.136  0.00  0.00     0.002 C 
BRANCH  30  31
ATOM     31  C           0     133.963 133.772 141.057  0.00  0.00     0.002 C 
BRANCH  31  32
ATOM     32  C           0     132.888 134.110 140.022  0.00  0.00     0.020 C 
BRANCH  32  33
ATOM     33  C           0     133.394 135.228 139.108  0.00  0.00     0.123 C 
BRANCH  33  34
ATOM     34  N           0     132.520 135.334 137.937  0.00  0.00    -0.357 N 
ATOM     35  C           0     133.001 135.054 136.709  0.00  0.00     0.251 C 
ATOM     36  O           0     134.161 134.715 136.575  0.00  0.00    -0.268 OA
ATOM     37  H           0     131.595 135.606 138.045  0.00  0.00     0.162 HD
BRANCH  35  38
ATOM     38  C           0     132.120 135.162 135.529  0.00  0.00     0.032 A 
ATOM     39  C           0     132.246 136.246 134.658  0.00  0.00     0.020 A 
ATOM     40  C           0     131.424 136.339 133.554  0.00  0.00     0.043 A 
ATOM     41  C           0     130.467 135.364 133.315  0.00  0.00     0.116 A 
ATOM     42  C           0     130.334 134.290 134.181  0.00  0.00     0.043 A 
ATOM     43  F           0     129.661 135.463 132.236  0.00  0.00    -0.206 F 
ATOM     44  C           0     131.154 134.184 135.284  0.00  0.00     0.020 A 
ENDBRANCH  35  38
ENDBRANCH  33  34
ENDBRANCH  32  33
ENDBRANCH  31  32
ENDBRANCH  30  31
ENDBRANCH  29  30
ENDBRANCH  28  29
ENDBRANCH  25  28
ENDBRANCH  23  24
ENDBRANCH  22  23
ENDBRANCH   6  22
BRANCH  18  45
ATOM     45  O           0     140.134 130.025 146.319  0.00  0.00    -0.362 OA
ATOM     46  H           0     140.613 129.824 147.134  0.00  0.00     0.213 HD
ENDBRANCH  18  45
BRANCH  18  47
ATOM     47  O           0     138.179 131.082 145.561  0.00  0.00    -0.362 OA
ATOM     48  H           0     137.926 132.016 145.573  0.00  0.00     0.213 HD
ENDBRANCH  18  47
TORSDOF 13
ENDMDL
MODEL 8
REMARK VINA RESULT:      -7.8      6.288     12.737
REMARK  13 active torsions:
REMARK  status: ('A' for Active; 'I' for Inactive)
REMARK    1  A    between atoms: C_6  and  C_7 
REMARK    2  A    between atoms: C_7  and  O_8 
REMARK    3  A    between atoms: O_8  and  C_9 
REMARK       I    between atoms: C_9  and  N_10 
REMARK    4  A    between atoms: N_10  and  C_11 
REMARK    5  A    between atoms: C_11  and  C_12 
REMARK    6  A    between atoms: C_12  and  C_13 
REMARK    7  A    between atoms: C_13  and  C_14 
REMARK    8  A    between atoms: C_14  and  C_15 
REMARK    9  A    between atoms: C_15  and  C_16 
REMARK   10  A    between atoms: C_16  and  N_17 
REMARK       I    between atoms: N_17  and  C_18 
REMARK   11  A    between atoms: C_18  and  C_19 
REMARK   12  A    between atoms: C_39  and  O_40 
REMARK   13  A    between atoms: C_39  and  O_41 
ROOT
ATOM      1  N           0     135.519 133.060 149.582  0.00  0.00    -0.235 N 
ATOM      2  H           0     135.067 133.903 149.419  0.00  0.00     0.174 HD
ATOM      3  H           0     135.882 132.866 150.461  0.00  0.00     0.174 HD
ATOM      4  C           0     135.630 132.185 148.623  0.00  0.00     0.672 C 
ATOM      5  N           0     135.123 132.412 147.355  0.00  0.00    -0.218 N 
ATOM      6  C           0     135.776 131.762 146.222  0.00  0.00     0.151 C 
ATOM      7  C           0     135.951 130.270 146.426  0.00  0.00     0.180 C 
ATOM      8  N           0     134.654 129.593 146.203  0.00  0.00    -0.216 N 
ATOM      9  C           0     134.537 128.601 147.145  0.00  0.00     0.670 C 
ATOM     10  N           0     133.726 127.586 147.042  0.00  0.00    -0.235 N 
ATOM     11  H           0     133.156 127.498 146.263  0.00  0.00     0.174 HD
ATOM     12  H           0     133.693 126.918 147.745  0.00  0.00     0.174 HD
ATOM     13  C           0     136.328 129.876 147.845  0.00  0.00     0.217 C 
ATOM     14  N           0     135.381 128.809 148.208  0.00  0.00    -0.191 N 
ATOM     15  N           0     136.262 130.982 148.802  0.00  0.00    -0.183 N 
ATOM     16  C           0     137.066 130.545 149.958  0.00  0.00     0.150 C 
ATOM     17  C           0     138.263 129.792 149.331  0.00  0.00     0.093 C 
ATOM     18  C           0     137.770 129.348 147.931  0.00  0.00     0.209 C 
ATOM     19  H           0     134.355 132.989 147.222  0.00  0.00     0.178 HD
ATOM     20  H           0     134.005 129.812 145.517  0.00  0.00     0.178 HD
ATOM     21  H           0     135.359 128.333 149.052  0.00  0.00     0.180 HD
ENDROOT
BRANCH   6  22
ATOM     22  C           0     137.153 132.395 146.015  0.00  0.00     0.208 C 
BRANCH  22  23
ATOM     23  O           0     137.000 133.818 145.769  0.00  0.00    -0.302 OA
BRANCH  23  24
ATOM     24  C           0     136.534 134.250 144.581  0.00  0.00     0.360 C 
ATOM     25  N           0     135.377 134.938 144.521  0.00  0.00    -0.337 N 
ATOM     26  H           0     134.880 135.122 145.334  0.00  0.00     0.164 HD
ATOM     27  O           0     137.157 134.017 143.564  0.00  0.00    -0.239 OA
BRANCH  25  28
ATOM     28  C           0     134.870 135.406 143.229  0.00  0.00     0.125 C 
BRANCH  28  29
ATOM     29  C           0     133.818 134.425 142.709  0.00  0.00     0.020 C 
BRANCH  29  30
ATOM     30  C           0     134.282 133.841 141.373  0.00  0.00     0.002 C 
BRANCH  30  31
ATOM     31  C           0     133.134 133.904 140.363  0.00  0.00     0.002 C 
BRANCH  31  32
ATOM     32  C           0     133.137 135.271 139.674  0.00  0.00     0.020 C 
BRANCH  32  33
ATOM     33  C           0     133.786 135.145 138.294  0.00  0.00     0.123 C 
BRANCH  33  34
ATOM     34  N           0     132.744 135.130 137.264  0.00  0.00    -0.357 N 
ATOM     35  C           0     133.049 135.452 135.992  0.00  0.00     0.251 C 
ATOM     36  O           0     134.190 135.755 135.699  0.00  0.00    -0.268 OA
ATOM     37  H           0     131.834 134.889 137.499  0.00  0.00     0.162 HD
BRANCH  35  38
ATOM     38  C           0     131.998 135.438 134.954  0.00  0.00     0.032 A 
ATOM     39  C           0     131.124 134.354 134.857  0.00  0.00     0.020 A 
ATOM     40  C           0     130.142 134.348 133.889  0.00  0.00     0.043 A 
ATOM     41  C           0     130.028 135.412 133.007  0.00  0.00     0.116 A 
ATOM     42  C           0     130.898 136.488 133.095  0.00  0.00     0.043 A 
ATOM     43  F           0     129.067 135.400 132.057  0.00  0.00    -0.206 F 
ATOM     44  C           0     131.880 136.506 134.062  0.00  0.00     0.020 A 
ENDBRANCH  35  38
ENDBRANCH  33  34
ENDBRANCH  32  33
ENDBRANCH  31  32
ENDBRANCH  30  31
ENDBRANCH  29  30
ENDBRANCH  28  29
ENDBRANCH  25  28
ENDBRANCH  23  24
ENDBRANCH  22  23
ENDBRANCH   6  22
BRANCH  18  45
ATOM     45  O           0     137.790 127.922 147.825  0.00  0.00    -0.362 OA
ATOM     46  H           0     138.051 127.713 146.918  0.00  0.00     0.213 HD
ENDBRANCH  18  45
BRANCH  18  47
ATOM     47  O           0     138.576 129.936 146.909  0.00  0.00    -0.362 OA
ATOM     48  H           0     138.228 129.622 146.062  0.00  0.00     0.213 HD
ENDBRANCH  18  47
TORSDOF 13
ENDMDL
MODEL 9
REMARK VINA RESULT:      -7.8      3.736      7.165
REMARK  13 active torsions:
REMARK  status: ('A' for Active; 'I' for Inactive)
REMARK    1  A    between atoms: C_6  and  C_7 
REMARK    2  A    between atoms: C_7  and  O_8 
REMARK    3  A    between atoms: O_8  and  C_9 
REMARK       I    between atoms: C_9  and  N_10 
REMARK    4  A    between atoms: N_10  and  C_11 
REMARK    5  A    between atoms: C_11  and  C_12 
REMARK    6  A    between atoms: C_12  and  C_13 
REMARK    7  A    between atoms: C_13  and  C_14 
REMARK    8  A    between atoms: C_14  and  C_15 
REMARK    9  A    between atoms: C_15  and  C_16 
REMARK   10  A    between atoms: C_16  and  N_17 
REMARK       I    between atoms: N_17  and  C_18 
REMARK   11  A    between atoms: C_18  and  C_19 
REMARK   12  A    between atoms: C_39  and  O_40 
REMARK   13  A    between atoms: C_39  and  O_41 
ROOT
ATOM      1  N           0     131.454 132.157 135.283  0.00  0.00    -0.235 N 
ATOM      2  H           0     130.882 131.827 135.994  0.00  0.00     0.174 HD
ATOM      3  H           0     131.786 131.549 134.605  0.00  0.00     0.174 HD
ATOM      4  C           0     131.769 133.421 135.237  0.00  0.00     0.672 C 
ATOM      5  N           0     131.316 134.330 136.177  0.00  0.00    -0.218 N 
ATOM      6  C           0     132.138 135.503 136.459  0.00  0.00     0.151 C 
ATOM      7  C           0     132.542 136.249 135.202  0.00  0.00     0.180 C 
ATOM      8  N           0     131.391 137.042 134.717  0.00  0.00    -0.216 N 
ATOM      9  C           0     131.377 136.956 133.347  0.00  0.00     0.670 C 
ATOM     10  N           0     130.752 137.793 132.567  0.00  0.00    -0.235 N 
ATOM     11  H           0     130.256 138.533 132.949  0.00  0.00     0.174 HD
ATOM     12  H           0     130.783 137.675 131.605  0.00  0.00     0.174 HD
ATOM     13  C           0     132.886 135.348 134.027  0.00  0.00     0.217 C 
ATOM     14  N           0     132.105 135.881 132.898  0.00  0.00    -0.191 N 
ATOM     15  N           0     132.577 133.935 134.256  0.00  0.00    -0.183 N 
ATOM     16  C           0     133.364 133.197 133.252  0.00  0.00     0.150 C 
ATOM     17  C           0     134.707 133.962 133.178  0.00  0.00     0.093 C 
ATOM     18  C           0     134.385 135.389 133.691  0.00  0.00     0.209 C 
ATOM     19  H           0     130.473 134.191 136.637  0.00  0.00     0.178 HD
ATOM     20  H           0     130.761 137.532 135.267  0.00  0.00     0.178 HD
ATOM     21  H           0     132.106 135.534 131.993  0.00  0.00     0.180 HD
ENDROOT
BRANCH   6  22
ATOM     22  C           0     133.404 135.054 137.192  0.00  0.00     0.208 C 
BRANCH  22  23
ATOM     23  O           0     133.286 135.378 138.604  0.00  0.00    -0.302 OA
BRANCH  23  24
ATOM     24  C           0     132.981 134.413 139.492  0.00  0.00     0.360 C 
ATOM     25  N           0     133.605 134.374 140.686  0.00  0.00    -0.337 N 
ATOM     26  H           0     134.274 135.042 140.904  0.00  0.00     0.164 HD
ATOM     27  O           0     132.144 133.576 139.217  0.00  0.00    -0.239 OA
BRANCH  25  28
ATOM     28  C           0     133.274 133.324 141.652  0.00  0.00     0.125 C 
BRANCH  28  29
ATOM     29  C           0     134.159 133.474 142.891  0.00  0.00     0.020 C 
BRANCH  29  30
ATOM     30  C           0     134.665 134.915 142.984  0.00  0.00     0.002 C 
BRANCH  30  31
ATOM     31  C           0     135.990 134.942 143.748  0.00  0.00     0.002 C 
BRANCH  31  32
ATOM     32  C           0     136.955 133.925 143.131  0.00  0.00     0.020 C 
BRANCH  32  33
ATOM     33  C           0     137.869 133.363 144.221  0.00  0.00     0.123 C 
BRANCH  33  34
ATOM     34  N           0     137.114 132.422 145.054  0.00  0.00    -0.357 N 
ATOM     35  C           0     137.762 131.460 145.739  0.00  0.00     0.251 C 
ATOM     36  O           0     138.973 131.373 145.668  0.00  0.00    -0.268 OA
ATOM     37  H           0     136.148 132.492 145.110  0.00  0.00     0.162 HD
BRANCH  35  38
ATOM     38  C           0     137.001 130.511 146.577  0.00  0.00     0.032 A 
ATOM     39  C           0     135.674 130.211 146.266  0.00  0.00     0.020 A 
ATOM     40  C           0     134.970 129.320 147.049  0.00  0.00     0.043 A 
ATOM     41  C           0     135.575 128.732 148.149  0.00  0.00     0.116 A 
ATOM     42  C           0     136.891 129.032 148.466  0.00  0.00     0.043 A 
ATOM     43  F           0     134.879 127.864 148.916  0.00  0.00    -0.206 F 
ATOM     44  C           0     137.605 129.917 147.687  0.00  0.00     0.020 A 
ENDBRANCH  35  38
ENDBRANCH  33  34
ENDBRANCH  32  33
ENDBRANCH  31  32
ENDBRANCH  30  31
ENDBRANCH  29  30
ENDBRANCH  28  29
ENDBRANCH  25  28
ENDBRANCH  23  24
ENDBRANCH  22  23
ENDBRANCH   6  22
BRANCH  18  45
ATOM     45  O           0     134.646 136.356 132.670  0.00  0.00    -0.362 OA
ATOM     46  H           0     135.384 136.898 132.981  0.00  0.00     0.213 HD
ENDBRANCH  18  45
BRANCH  18  47
ATOM     47  O           0     135.149 135.681 134.862  0.00  0.00    -0.362 OA
ATOM     48  H           0     135.283 136.640 134.877  0.00  0.00     0.213 HD
ENDBRANCH  18  47
TORSDOF 13
ENDMDL
