# created with PyMOL 2.3.4
@<TRIPOS>MOLECULE
ligand_out_0001
48 51 1                 
SMALL
USER_CHARGES
@<TRIPOS>ATOM
1	   N	131.097	131.652	135.721	N.3	1	UNK0	-0.235	
2	   N	129.671	130.835	134.037	N.3	1	UNK0	-0.218	
3	   N	129.841	128.197	132.455	N.3	1	UNK0	-0.216	
4	   N	130.684	126.034	132.911	N.3	1	UNK0	-0.235	
5	   N	131.945	127.999	133.290	N.3	1	UNK0	-0.191	
6	   N	131.943	130.311	133.999	N.3	1	UNK0	-0.183	
7	   N	131.400	134.204	133.077	N.pl3	1	UNK0	-0.337	
8	   N	133.927	134.870	139.425	N.pl3	1	UNK0	-0.357	
9	   C	130.914	130.960	134.632	C.3	1	UNK0	0.672	
10	   C	129.612	130.623	132.593	C.3	1	UNK0	0.151	
11	   C	130.498	129.483	132.133	C.3	1	UNK0	0.180	
12	   C	130.815	127.331	132.887	C.3	1	UNK0	0.670	
13	   C	131.833	129.401	132.857	C.3	1	UNK0	0.217	
14	   C	133.387	130.422	134.271	C.3	1	UNK0	0.150	
15	   C	134.042	130.439	132.869	C.3	1	UNK0	0.093	
16	   C	133.010	129.759	131.935	C.3	1	UNK0	0.209	
17	   C	130.056	131.907	131.888	C.2	1	UNK0	0.208	
18	   C	130.125	134.210	132.642	C.2	1	UNK0	0.360	
19	   C	132.141	135.463	133.192	C.3	1	UNK0	0.125	
20	   C	131.868	136.091	134.561	C.3	1	UNK0	0.020	
21	   C	132.301	135.120	135.661	C.3	1	UNK0	0.002	
22	   C	133.828	135.037	135.696	C.3	1	UNK0	0.002	
23	   C	134.329	135.448	137.083	C.3	1	UNK0	0.020	
24	   C	133.274	135.092	138.132	C.3	1	UNK0	0.123	
25	   C	133.252	134.272	140.427	C.2	1	UNK0	0.251	
26	   C	133.910	134.050	141.730	C.3	1	UNK0	0.032	
27	   C	134.106	132.752	142.204	C.3	1	UNK0	0.020	
28	   C	134.725	132.550	143.420	C.3	1	UNK0	0.043	
29	   C	135.143	133.635	144.176	C.3	1	UNK0	0.116	
30	   C	134.945	134.927	143.713	C.3	1	UNK0	0.043	
31	   C	134.332	135.139	142.496	C.3	1	UNK0	0.020	
32	   O	129.444	133.053	132.537	O.2	1	UNK0	-0.302	
33	   O	129.588	135.259	132.345	O.co2	1	UNK0	-0.239	
34	   O	132.102	133.917	140.257	O.2	1	UNK0	-0.268	
35	   O	133.568	128.580	131.350	O.2	1	UNK0	-0.362	
36	   O	132.585	130.668	130.917	O.2	1	UNK0	-0.362	
37	   F	135.744	133.432	145.369	 F	1	UNK0	-0.206	
38	   H	130.347	132.101	136.141	 H	1	UNK0	0.174	
39	   H	131.982	131.715	136.113	 H	1	UNK0	0.174	
40	   H	129.857	125.625	132.611	 H	1	UNK0	0.174	
41	   H	131.413	125.478	133.228	 H	1	UNK0	0.174	
42	   H	128.859	130.887	134.565	 H	1	UNK0	0.178	
43	   H	128.895	128.002	132.374	 H	1	UNK0	0.178	
44	   H	132.691	127.611	133.774	 H	1	UNK0	0.180	
45	   H	131.827	133.366	133.314	 H	1	UNK0	0.164	
46	   H	134.845	135.155	139.560	 H	1	UNK0	0.162	
47	   H	134.529	128.665	131.415	 H	1	UNK0	0.213	
48	   H	131.814	131.138	131.266	 H	1	UNK0	0.213	
@<TRIPOS>BOND
1 1 9 1
2 1 38 1
3 1 39 1
4 2 10 1
5 2 42 1
6 3 12 1
7 3 43 1
8 4 40 1
9 4 41 1
10 5 44 1
11 6 14 1
12 7 19 1
13 7 45 1
14 8 25 1
15 8 46 1
16 2 9 1
17 6 9 1
18 10 11 1
19 10 17 1
20 3 11 1
21 11 13 1
22 4 12 1
23 5 12 1
24 5 13 1
25 6 13 1
26 13 16 1
27 14 15 1
28 15 16 1
29 16 35 2
30 16 36 2
31 17 32 2
32 7 18 1
33 18 33 2
34 19 20 1
35 20 21 1
36 21 22 1
37 22 23 1
38 23 24 1
39 8 24 1
40 25 26 1
41 25 34 2
42 26 27 1
43 26 31 1
44 27 28 1
45 28 29 1
46 29 30 1
47 29 37 1
48 30 31 1
49 18 32 2
50 35 47 1
51 36 48 1
@<TRIPOS>SUBSTRUCTURE
1	UNK0	1	GROUP	1 ****	UNK
