# created with PyMOL 2.3.4
@<TRIPOS>MOLECULE
ligand_out_0001
28 30 1                 
SMALL
USER_CHARGES
@<TRIPOS>ATOM
1	   N	135.444	132.573	147.018	N.3	1	UNK0	-0.235	
2	   N	136.809	134.250	146.091	N.3	1	UNK0	-0.218	
3	   N	136.304	136.025	143.625	N.3	1	UNK0	-0.216	
4	   N	134.375	136.886	142.561	N.3	1	UNK0	-0.235	
5	   N	134.606	134.601	143.126	N.3	1	UNK0	-0.191	
6	   N	135.430	132.972	144.711	N.3	1	UNK0	-0.183	
7	   C	135.873	133.236	145.981	C.3	1	UNK0	0.672	
8	   C	137.684	134.511	144.951	C.3	1	UNK0	0.150	
9	   C	136.918	134.681	143.654	C.3	1	UNK0	0.180	
10	   C	135.054	135.898	143.072	C.3	1	UNK0	0.670	
11	   C	135.737	133.736	143.501	C.3	1	UNK0	0.217	
12	   C	134.603	131.839	144.258	C.3	1	UNK0	0.150	
13	   C	135.229	131.424	142.906	C.3	1	UNK0	0.093	
14	   C	135.978	132.686	142.405	C.3	1	UNK0	0.209	
15	   C	138.658	133.340	144.798	C.2	1	UNK0	0.192	
16	   O	135.435	133.125	141.158	O.2	1	UNK0	-0.362	
17	   O	137.375	132.416	142.274	O.2	1	UNK0	-0.362	
18	   O	139.440	133.522	143.616	O.2	1	UNK0	-0.399	
19	   H	135.783	132.783	147.902	 H	1	UNK0	0.174	
20	   H	134.784	131.871	146.905	 H	1	UNK0	0.174	
21	   H	134.750	137.781	142.555	 H	1	UNK0	0.174	
22	   H	133.495	136.727	142.185	 H	1	UNK0	0.174	
23	   H	136.882	134.773	146.905	 H	1	UNK0	0.178	
24	   H	136.710	136.848	143.939	 H	1	UNK0	0.178	
25	   H	133.701	134.306	142.943	 H	1	UNK0	0.180	
26	   H	134.498	132.886	141.162	 H	1	UNK0	0.213	
27	   H	137.670	132.052	143.121	 H	1	UNK0	0.213	
28	   H	139.207	132.804	143.013	 H	1	UNK0	0.209	
@<TRIPOS>BOND
1 1 7 1
2 1 19 1
3 1 20 1
4 2 8 1
5 2 23 1
6 3 10 1
7 3 24 1
8 4 21 1
9 4 22 1
10 5 25 1
11 6 12 1
12 2 7 1
13 6 7 1
14 8 9 1
15 8 15 1
16 3 9 1
17 9 11 1
18 4 10 1
19 5 10 1
20 5 11 1
21 6 11 1
22 11 14 1
23 12 13 1
24 13 14 1
25 14 16 2
26 14 17 2
27 15 18 2
28 16 26 1
29 17 27 1
30 18 28 1
@<TRIPOS>SUBSTRUCTURE
1	UNK0	1	GROUP	1 ****	UNK
