MODEL 1
REMARK VINA RESULT:      -7.4      0.000      0.000
REMARK  4 active torsions:
REMARK  status: ('A' for Active; 'I' for Inactive)
REMARK    1  A    between atoms: C_6  and  C_7 
REMARK    2  A    between atoms: C_7  and  O_8 
REMARK    3  A    between atoms: C_20  and  O_21 
REMARK    4  A    between atoms: C_20  and  O_22 
ROOT
ATOM      1  N           0     135.444 132.573 147.018  0.00  0.00    -0.235 N 
ATOM      2  H           0     135.783 132.783 147.902  0.00  0.00     0.174 HD
ATOM      3  H           0     134.784 131.871 146.905  0.00  0.00     0.174 HD
ATOM      4  C           0     135.873 133.236 145.981  0.00  0.00     0.672 C 
ATOM      5  N           0     136.809 134.250 146.091  0.00  0.00    -0.218 N 
ATOM      6  C           0     137.684 134.511 144.951  0.00  0.00     0.150 C 
ATOM      7  C           0     136.918 134.681 143.654  0.00  0.00     0.180 C 
ATOM      8  N           0     136.304 136.025 143.625  0.00  0.00    -0.216 N 
ATOM      9  C           0     135.054 135.898 143.072  0.00  0.00     0.670 C 
ATOM     10  N           0     134.375 136.886 142.561  0.00  0.00    -0.235 N 
ATOM     11  H           0     134.750 137.781 142.555  0.00  0.00     0.174 HD
ATOM     12  H           0     133.495 136.727 142.185  0.00  0.00     0.174 HD
ATOM     13  C           0     135.737 133.736 143.501  0.00  0.00     0.217 C 
ATOM     14  N           0     134.606 134.601 143.126  0.00  0.00    -0.191 N 
ATOM     15  N           0     135.430 132.972 144.711  0.00  0.00    -0.183 N 
ATOM     16  C           0     134.603 131.839 144.258  0.00  0.00     0.150 C 
ATOM     17  C           0     135.229 131.424 142.906  0.00  0.00     0.093 C 
ATOM     18  C           0     135.978 132.686 142.405  0.00  0.00     0.209 C 
ATOM     19  H           0     136.882 134.773 146.905  0.00  0.00     0.178 HD
ATOM     20  H           0     136.710 136.848 143.939  0.00  0.00     0.178 HD
ATOM     21  H           0     133.701 134.306 142.943  0.00  0.00     0.180 HD
ENDROOT
BRANCH  18  22
ATOM     22  O           0     135.435 133.125 141.158  0.00  0.00    -0.362 OA
ATOM     23  H           0     134.498 132.886 141.162  0.00  0.00     0.213 HD
ENDBRANCH  18  22
BRANCH  18  24
ATOM     24  O           0     137.375 132.416 142.274  0.00  0.00    -0.362 OA
ATOM     25  H           0     137.670 132.052 143.121  0.00  0.00     0.213 HD
ENDBRANCH  18  24
BRANCH   6  26
ATOM     26  C           0     138.658 133.340 144.798  0.00  0.00     0.192 C 
BRANCH  26  27
ATOM     27  O           0     139.440 133.522 143.616  0.00  0.00    -0.399 OA
ATOM     28  H           0     139.207 132.804 143.013  0.00  0.00     0.209 HD
ENDBRANCH  26  27
ENDBRANCH   6  26
TORSDOF 4
ENDMDL
MODEL 2
REMARK VINA RESULT:      -7.1      1.711      2.327
REMARK  4 active torsions:
REMARK  status: ('A' for Active; 'I' for Inactive)
REMARK    1  A    between atoms: C_6  and  C_7 
REMARK    2  A    between atoms: C_7  and  O_8 
REMARK    3  A    between atoms: C_20  and  O_21 
REMARK    4  A    between atoms: C_20  and  O_22 
ROOT
ATOM      1  N           0     135.932 134.699 146.908  0.00  0.00    -0.235 N 
ATOM      2  H           0     136.250 135.594 147.100  0.00  0.00     0.174 HD
ATOM      3  H           0     135.624 134.128 147.629  0.00  0.00     0.174 HD
ATOM      4  C           0     135.917 134.263 145.680  0.00  0.00     0.672 C 
ATOM      5  N           0     136.342 135.041 144.616  0.00  0.00    -0.218 N 
ATOM      6  C           0     136.886 134.368 143.440  0.00  0.00     0.150 C 
ATOM      7  C           0     135.977 133.272 142.921  0.00  0.00     0.180 C 
ATOM      8  N           0     134.853 133.884 142.181  0.00  0.00    -0.216 N 
ATOM      9  C           0     133.719 133.171 142.487  0.00  0.00     0.670 C 
ATOM     10  N           0     132.631 133.182 141.768  0.00  0.00    -0.235 N 
ATOM     11  H           0     132.589 133.716 140.960  0.00  0.00     0.174 HD
ATOM     12  H           0     131.865 132.654 142.041  0.00  0.00     0.174 HD
ATOM     13  C           0     135.297 132.459 144.012  0.00  0.00     0.217 C 
ATOM     14  N           0     133.872 132.448 143.644  0.00  0.00    -0.191 N 
ATOM     15  N           0     135.485 133.003 145.358  0.00  0.00    -0.183 N 
ATOM     16  C           0     135.169 131.892 146.274  0.00  0.00     0.150 C 
ATOM     17  C           0     135.751 130.641 145.576  0.00  0.00     0.093 C 
ATOM     18  C           0     135.833 131.019 144.074  0.00  0.00     0.209 C 
ATOM     19  H           0     136.280 136.008 144.653  0.00  0.00     0.178 HD
ATOM     20  H           0     134.905 134.648 141.588  0.00  0.00     0.178 HD
ATOM     21  H           0     133.162 132.003 144.132  0.00  0.00     0.180 HD
ENDROOT
BRANCH  18  22
ATOM     22  O           0     135.015 130.144 143.295  0.00  0.00    -0.362 OA
ATOM     23  H           0     134.127 130.526 143.285  0.00  0.00     0.213 HD
ENDBRANCH  18  22
BRANCH  18  24
ATOM     24  O           0     137.187 130.973 143.621  0.00  0.00    -0.362 OA
ATOM     25  H           0     137.742 130.884 144.409  0.00  0.00     0.213 HD
ENDBRANCH  18  24
BRANCH   6  26
ATOM     26  C           0     138.239 133.753 143.805  0.00  0.00     0.192 C 
BRANCH  26  27
ATOM     27  O           0     138.743 133.013 142.691  0.00  0.00    -0.399 OA
ATOM     28  H           0     138.500 132.089 142.837  0.00  0.00     0.209 HD
ENDBRANCH  26  27
ENDBRANCH   6  26
TORSDOF 4
ENDMDL
MODEL 3
REMARK VINA RESULT:      -7.0      1.325      4.246
REMARK  4 active torsions:
REMARK  status: ('A' for Active; 'I' for Inactive)
REMARK    1  A    between atoms: C_6  and  C_7 
REMARK    2  A    between atoms: C_7  and  O_8 
REMARK    3  A    between atoms: C_20  and  O_21 
REMARK    4  A    between atoms: C_20  and  O_22 
ROOT
ATOM      1  N           0     135.016 136.681 143.129  0.00  0.00    -0.235 N 
ATOM      2  H           0     134.229 137.111 142.758  0.00  0.00     0.174 HD
ATOM      3  H           0     135.777 137.216 143.403  0.00  0.00     0.174 HD
ATOM      4  C           0     135.047 135.385 143.262  0.00  0.00     0.672 C 
ATOM      5  N           0     133.985 134.580 142.890  0.00  0.00    -0.218 N 
ATOM      6  C           0     134.268 133.209 142.472  0.00  0.00     0.150 C 
ATOM      7  C           0     135.132 132.462 143.468  0.00  0.00     0.180 C 
ATOM      8  N           0     134.302 132.051 144.620  0.00  0.00    -0.216 N 
ATOM      9  C           0     135.055 132.223 145.755  0.00  0.00     0.670 C 
ATOM     10  N           0     134.803 131.644 146.896  0.00  0.00    -0.235 N 
ATOM     11  H           0     134.044 131.046 146.979  0.00  0.00     0.174 HD
ATOM     12  H           0     135.377 131.809 147.661  0.00  0.00     0.174 HD
ATOM     13  C           0     136.233 133.306 144.093  0.00  0.00     0.217 C 
ATOM     14  N           0     136.104 133.082 145.542  0.00  0.00    -0.191 N 
ATOM     15  N           0     136.138 134.731 143.773  0.00  0.00    -0.183 N 
ATOM     16  C           0     137.473 135.285 144.063  0.00  0.00     0.150 C 
ATOM     17  C           0     138.455 134.185 143.595  0.00  0.00     0.093 C 
ATOM     18  C           0     137.629 132.873 143.618  0.00  0.00     0.209 C 
ATOM     19  H           0     133.076 134.918 142.906  0.00  0.00     0.178 HD
ATOM     20  H           0     133.392 131.720 144.581  0.00  0.00     0.178 HD
ATOM     21  H           0     136.667 133.471 146.229  0.00  0.00     0.180 HD
ENDROOT
BRANCH  18  22
ATOM     22  O           0     138.205 131.939 144.533  0.00  0.00    -0.362 OA
ATOM     23  H           0     138.459 132.439 145.321  0.00  0.00     0.213 HD
ENDBRANCH  18  22
BRANCH  18  24
ATOM     24  O           0     137.556 132.308 142.308  0.00  0.00    -0.362 OA
ATOM     25  H           0     138.108 132.858 141.735  0.00  0.00     0.213 HD
ENDBRANCH  18  24
BRANCH   6  26
ATOM     26  C           0     134.989 133.244 141.123  0.00  0.00     0.192 C 
BRANCH  26  27
ATOM     27  O           0     134.190 133.953 140.173  0.00  0.00    -0.399 OA
ATOM     28  H           0     134.797 134.478 139.634  0.00  0.00     0.209 HD
ENDBRANCH  26  27
ENDBRANCH   6  26
TORSDOF 4
ENDMDL
MODEL 4
REMARK VINA RESULT:      -6.8      1.099      1.185
REMARK  4 active torsions:
REMARK  status: ('A' for Active; 'I' for Inactive)
REMARK    1  A    between atoms: C_6  and  C_7 
REMARK    2  A    between atoms: C_7  and  O_8 
REMARK    3  A    between atoms: C_20  and  O_21 
REMARK    4  A    between atoms: C_20  and  O_22 
ROOT
ATOM      1  N           0     136.063 133.593 148.029  0.00  0.00    -0.235 N 
ATOM      2  H           0     136.545 134.102 148.700  0.00  0.00     0.174 HD
ATOM      3  H           0     135.383 132.956 148.299  0.00  0.00     0.174 HD
ATOM      4  C           0     136.326 133.769 146.765  0.00  0.00     0.672 C 
ATOM      5  N           0     137.282 134.670 146.329  0.00  0.00    -0.218 N 
ATOM      6  C           0     137.962 134.401 145.065  0.00  0.00     0.150 C 
ATOM      7  C           0     136.996 134.116 143.932  0.00  0.00     0.180 C 
ATOM      8  N           0     136.405 135.387 143.465  0.00  0.00    -0.216 N 
ATOM      9  C           0     135.079 135.154 143.195  0.00  0.00     0.670 C 
ATOM     10  N           0     134.340 135.918 142.440  0.00  0.00    -0.235 N 
ATOM     11  H           0     134.722 136.708 142.027  0.00  0.00     0.174 HD
ATOM     12  H           0     133.408 135.695 142.289  0.00  0.00     0.174 HD
ATOM     13  C           0     135.792 133.280 144.337  0.00  0.00     0.217 C 
ATOM     14  N           0     134.628 134.018 143.819  0.00  0.00    -0.191 N 
ATOM     15  N           0     135.677 133.070 145.781  0.00  0.00    -0.183 N 
ATOM     16  C           0     134.770 131.918 145.936  0.00  0.00     0.150 C 
ATOM     17  C           0     135.160 130.965 144.782  0.00  0.00     0.093 C 
ATOM     18  C           0     135.835 131.872 143.721  0.00  0.00     0.209 C 
ATOM     19  H           0     137.495 135.460 146.851  0.00  0.00     0.178 HD
ATOM     20  H           0     136.869 136.233 143.367  0.00  0.00     0.178 HD
ATOM     21  H           0     133.700 133.746 143.901  0.00  0.00     0.180 HD
ENDROOT
BRANCH  18  22
ATOM     22  O           0     135.101 131.836 142.495  0.00  0.00    -0.362 OA
ATOM     23  H           0     135.737 131.635 141.794  0.00  0.00     0.213 HD
ENDBRANCH  18  22
BRANCH  18  24
ATOM     24  O           0     137.187 131.466 143.506  0.00  0.00    -0.362 OA
ATOM     25  H           0     137.512 131.116 144.348  0.00  0.00     0.213 HD
ENDBRANCH  18  24
BRANCH   6  26
ATOM     26  C           0     138.880 133.191 145.246  0.00  0.00     0.192 C 
BRANCH  26  27
ATOM     27  O           0     139.488 132.862 143.995  0.00  0.00    -0.399 OA
ATOM     28  H           0     139.156 133.497 143.347  0.00  0.00     0.209 HD
ENDBRANCH  26  27
ENDBRANCH   6  26
TORSDOF 4
ENDMDL
MODEL 5
REMARK VINA RESULT:      -6.4      2.935      4.246
REMARK  4 active torsions:
REMARK  status: ('A' for Active; 'I' for Inactive)
REMARK    1  A    between atoms: C_6  and  C_7 
REMARK    2  A    between atoms: C_7  and  O_8 
REMARK    3  A    between atoms: C_20  and  O_21 
REMARK    4  A    between atoms: C_20  and  O_22 
ROOT
ATOM      1  N           0     139.081 130.418 146.002  0.00  0.00    -0.235 N 
ATOM      2  H           0     139.235 129.573 146.452  0.00  0.00     0.174 HD
ATOM      3  H           0     139.826 130.907 145.618  0.00  0.00     0.174 HD
ATOM      4  C           0     137.872 130.895 145.909  0.00  0.00     0.672 C 
ATOM      5  N           0     136.776 130.234 146.435  0.00  0.00    -0.218 N 
ATOM      6  C           0     135.626 131.028 146.860  0.00  0.00     0.150 C 
ATOM      7  C           0     135.157 131.994 145.790  0.00  0.00     0.180 C 
ATOM      8  N           0     134.397 131.251 144.763  0.00  0.00    -0.216 N 
ATOM      9  C           0     134.737 131.772 143.539  0.00  0.00     0.670 C 
ATOM     10  N           0     134.022 131.627 142.458  0.00  0.00    -0.235 N 
ATOM     11  H           0     133.193 131.126 142.488  0.00  0.00     0.174 HD
ATOM     12  H           0     134.320 132.022 141.623  0.00  0.00     0.174 HD
ATOM     13  C           0     136.283 132.651 145.008  0.00  0.00     0.217 C 
ATOM     14  N           0     135.922 132.463 143.593  0.00  0.00    -0.191 N 
ATOM     15  N           0     137.604 132.088 145.289  0.00  0.00    -0.183 N 
ATOM     16  C           0     138.568 133.101 144.820  0.00  0.00     0.150 C 
ATOM     17  C           0     137.919 134.453 145.200  0.00  0.00     0.093 C 
ATOM     18  C           0     136.403 134.152 145.322  0.00  0.00     0.209 C 
ATOM     19  H           0     136.772 129.267 146.519  0.00  0.00     0.178 HD
ATOM     20  H           0     133.772 130.528 144.924  0.00  0.00     0.178 HD
ATOM     21  H           0     136.431 132.776 142.830  0.00  0.00     0.180 HD
ENDROOT
BRANCH  18  22
ATOM     22  O           0     135.664 134.925 144.374  0.00  0.00    -0.362 OA
ATOM     23  H           0     135.192 135.604 144.875  0.00  0.00     0.213 HD
ENDBRANCH  18  22
BRANCH  18  24
ATOM     24  O           0     135.947 134.419 146.649  0.00  0.00    -0.362 OA
ATOM     25  H           0     136.724 134.381 147.225  0.00  0.00     0.213 HD
ENDBRANCH  18  24
BRANCH   6  26
ATOM     26  C           0     136.011 131.824 148.108  0.00  0.00     0.192 C 
BRANCH  26  27
ATOM     27  O           0     134.866 132.527 148.597  0.00  0.00    -0.399 OA
ATOM     28  H           0     134.105 131.947 148.466  0.00  0.00     0.209 HD
ENDBRANCH  26  27
ENDBRANCH   6  26
TORSDOF 4
ENDMDL
MODEL 6
REMARK VINA RESULT:      -6.2      1.461      4.294
REMARK  4 active torsions:
REMARK  status: ('A' for Active; 'I' for Inactive)
REMARK    1  A    between atoms: C_6  and  C_7 
REMARK    2  A    between atoms: C_7  and  O_8 
REMARK    3  A    between atoms: C_20  and  O_21 
REMARK    4  A    between atoms: C_20  and  O_22 
ROOT
ATOM      1  N           0     136.250 136.066 143.625  0.00  0.00    -0.235 N 
ATOM      2  H           0     135.649 136.547 143.035  0.00  0.00     0.174 HD
ATOM      3  H           0     137.042 136.504 143.973  0.00  0.00     0.174 HD
ATOM      4  C           0     135.990 134.831 143.953  0.00  0.00     0.672 C 
ATOM      5  N           0     134.870 134.164 143.487  0.00  0.00    -0.218 N 
ATOM      6  C           0     134.937 132.712 143.347  0.00  0.00     0.150 C 
ATOM      7  C           0     135.435 132.028 144.604  0.00  0.00     0.180 C 
ATOM      8  N           0     134.344 131.987 145.600  0.00  0.00    -0.216 N 
ATOM      9  C           0     134.898 132.237 146.832  0.00  0.00     0.670 C 
ATOM     10  N           0     134.330 131.932 147.966  0.00  0.00    -0.235 N 
ATOM     11  H           0     133.462 131.500 147.973  0.00  0.00     0.174 HD
ATOM     12  H           0     134.777 132.136 148.802  0.00  0.00     0.174 HD
ATOM     13  C           0     136.553 132.772 145.317  0.00  0.00     0.217 C 
ATOM     14  N           0     136.122 132.848 146.723  0.00  0.00    -0.191 N 
ATOM     15  N           0     136.812 134.107 144.777  0.00  0.00    -0.183 N 
ATOM     16  C           0     138.157 134.469 145.259  0.00  0.00     0.150 C 
ATOM     17  C           0     138.961 133.150 145.180  0.00  0.00     0.093 C 
ATOM     18  C           0     137.894 132.025 145.221  0.00  0.00     0.209 C 
ATOM     19  H           0     134.062 134.650 143.258  0.00  0.00     0.178 HD
ATOM     20  H           0     133.407 131.815 145.418  0.00  0.00     0.178 HD
ATOM     21  H           0     136.619 133.256 147.448  0.00  0.00     0.180 HD
ENDROOT
BRANCH  18  22
ATOM     22  O           0     138.090 131.194 146.367  0.00  0.00    -0.362 OA
ATOM     23  H           0     138.814 131.586 146.876  0.00  0.00     0.213 HD
ENDBRANCH  18  22
BRANCH  18  24
ATOM     24  O           0     137.944 131.247 144.024  0.00  0.00    -0.362 OA
ATOM     25  H           0     137.425 131.721 143.360  0.00  0.00     0.213 HD
ENDBRANCH  18  24
BRANCH   6  26
ATOM     26  C           0     135.882 132.370 142.193  0.00  0.00     0.192 C 
BRANCH  26  27
ATOM     27  O           0     135.512 133.122 141.035  0.00  0.00    -0.399 OA
ATOM     28  H           0     135.567 132.520 140.282  0.00  0.00     0.209 HD
ENDBRANCH  26  27
ENDBRANCH   6  26
TORSDOF 4
ENDMDL
MODEL 7
REMARK VINA RESULT:      -6.2      1.621      4.249
REMARK  4 active torsions:
REMARK  status: ('A' for Active; 'I' for Inactive)
REMARK    1  A    between atoms: C_6  and  C_7 
REMARK    2  A    between atoms: C_7  and  O_8 
REMARK    3  A    between atoms: C_20  and  O_21 
REMARK    4  A    between atoms: C_20  and  O_22 
ROOT
ATOM      1  N           0     134.949 134.775 142.273  0.00  0.00    -0.235 N 
ATOM      2  H           0     134.044 134.793 141.923  0.00  0.00     0.174 HD
ATOM      3  H           0     135.649 135.283 141.835  0.00  0.00     0.174 HD
ATOM      4  C           0     135.222 134.071 143.336  0.00  0.00     0.672 C 
ATOM      5  N           0     134.256 133.334 144.000  0.00  0.00    -0.218 N 
ATOM      6  C           0     134.677 132.141 144.729  0.00  0.00     0.150 C 
ATOM      7  C           0     135.832 132.410 145.673  0.00  0.00     0.180 C 
ATOM      8  N           0     135.324 133.097 146.879  0.00  0.00    -0.216 N 
ATOM      9  C           0     136.245 134.053 147.231  0.00  0.00     0.670 C 
ATOM     10  N           0     136.321 134.597 148.413  0.00  0.00    -0.235 N 
ATOM     11  H           0     135.704 134.329 149.111  0.00  0.00     0.174 HD
ATOM     12  H           0     136.998 135.268 148.596  0.00  0.00     0.174 HD
ATOM     13  C           0     136.877 133.367 145.120  0.00  0.00     0.217 C 
ATOM     14  N           0     137.074 134.367 146.183  0.00  0.00    -0.191 N 
ATOM     15  N           0     136.485 134.009 143.865  0.00  0.00    -0.183 N 
ATOM     16  C           0     137.739 134.512 143.276  0.00  0.00     0.150 C 
ATOM     17  C           0     138.780 133.412 143.592  0.00  0.00     0.093 C 
ATOM     18  C           0     138.206 132.656 144.818  0.00  0.00     0.209 C 
ATOM     19  H           0     133.325 133.603 143.980  0.00  0.00     0.178 HD
ATOM     20  H           0     134.492 132.907 147.339  0.00  0.00     0.178 HD
ATOM     21  H           0     137.688 135.117 146.150  0.00  0.00     0.180 HD
ENDROOT
BRANCH  18  22
ATOM     22  O           0     139.097 132.761 145.930  0.00  0.00    -0.362 OA
ATOM     23  H           0     138.961 131.972 146.473  0.00  0.00     0.213 HD
ENDBRANCH  18  22
BRANCH  18  24
ATOM     24  O           0     137.973 131.284 144.493  0.00  0.00    -0.362 OA
ATOM     25  H           0     138.839 130.856 144.447  0.00  0.00     0.213 HD
ENDBRANCH  18  24
BRANCH   6  26
ATOM     26  C           0     135.104 131.071 143.722  0.00  0.00     0.192 C 
BRANCH  26  27
ATOM     27  O           0     134.048 130.851 142.784  0.00  0.00    -0.399 OA
ATOM     28  H           0     133.437 130.224 143.193  0.00  0.00     0.209 HD
ENDBRANCH  26  27
ENDBRANCH   6  26
TORSDOF 4
ENDMDL
MODEL 8
REMARK VINA RESULT:      -6.2      8.459     10.668
REMARK  4 active torsions:
REMARK  status: ('A' for Active; 'I' for Inactive)
REMARK    1  A    between atoms: C_6  and  C_7 
REMARK    2  A    between atoms: C_7  and  O_8 
REMARK    3  A    between atoms: C_20  and  O_21 
REMARK    4  A    between atoms: C_20  and  O_22 
ROOT
ATOM      1  N           0     132.393 137.472 132.459  0.00  0.00    -0.235 N 
ATOM      2  H           0     131.661 138.100 132.359  0.00  0.00     0.174 HD
ATOM      3  H           0     133.143 137.499 131.844  0.00  0.00     0.174 HD
ATOM      4  C           0     132.370 136.593 133.421  0.00  0.00     0.672 C 
ATOM      5  N           0     131.325 136.517 134.326  0.00  0.00    -0.218 N 
ATOM      6  C           0     131.029 135.223 134.934  0.00  0.00     0.150 C 
ATOM      7  C           0     132.256 134.567 135.537  0.00  0.00     0.180 C 
ATOM      8  N           0     132.573 135.219 136.825  0.00  0.00    -0.216 N 
ATOM      9  C           0     133.939 135.330 136.908  0.00  0.00     0.670 C 
ATOM     10  N           0     134.592 135.514 138.021  0.00  0.00    -0.235 N 
ATOM     11  H           0     134.112 135.579 138.861  0.00  0.00     0.174 HD
ATOM     12  H           0     135.560 135.583 138.010  0.00  0.00     0.174 HD
ATOM     13  C           0     133.523 134.745 134.715  0.00  0.00     0.217 C 
ATOM     14  N           0     134.532 135.225 135.674  0.00  0.00    -0.191 N 
ATOM     15  N           0     133.377 135.680 133.599  0.00  0.00    -0.183 N 
ATOM     16  C           0     134.502 135.385 132.693  0.00  0.00     0.150 C 
ATOM     17  C           0     134.638 133.845 132.739  0.00  0.00     0.093 C 
ATOM     18  C           0     133.989 133.423 134.083  0.00  0.00     0.209 C 
ATOM     19  H           0     130.803 137.304 134.548  0.00  0.00     0.178 HD
ATOM     20  H           0     131.933 135.515 137.490  0.00  0.00     0.178 HD
ATOM     21  H           0     135.458 135.428 135.471  0.00  0.00     0.180 HD
ENDROOT
BRANCH  18  22
ATOM     22  O           0     134.951 132.777 134.919  0.00  0.00    -0.362 OA
ATOM     23  H           0     134.529 131.978 135.265  0.00  0.00     0.213 HD
ENDBRANCH  18  22
BRANCH  18  24
ATOM     24  O           0     132.873 132.564 133.849  0.00  0.00    -0.362 OA
ATOM     25  H           0     132.969 132.219 132.950  0.00  0.00     0.213 HD
ENDBRANCH  18  24
BRANCH   6  26
ATOM     26  C           0     130.450 134.296 133.865  0.00  0.00     0.192 C 
BRANCH  26  27
ATOM     27  O           0     130.147 133.026 134.448  0.00  0.00    -0.399 OA
ATOM     28  H           0     129.395 132.666 133.958  0.00  0.00     0.209 HD
ENDBRANCH  26  27
ENDBRANCH   6  26
TORSDOF 4
ENDMDL
MODEL 9
REMARK VINA RESULT:      -6.2      2.354      4.654
REMARK  4 active torsions:
REMARK  status: ('A' for Active; 'I' for Inactive)
REMARK    1  A    between atoms: C_6  and  C_7 
REMARK    2  A    between atoms: C_7  and  O_8 
REMARK    3  A    between atoms: C_20  and  O_21 
REMARK    4  A    between atoms: C_20  and  O_22 
ROOT
ATOM      1  N           0     135.857 134.541 147.141  0.00  0.00    -0.235 N 
ATOM      2  H           0     135.115 134.352 147.735  0.00  0.00     0.174 HD
ATOM      3  H           0     136.151 135.456 147.006  0.00  0.00     0.174 HD
ATOM      4  C           0     136.463 133.565 146.526  0.00  0.00     0.672 C 
ATOM      5  N           0     136.085 132.243 146.689  0.00  0.00    -0.218 N 
ATOM      6  C           0     136.325 131.314 145.588  0.00  0.00     0.150 C 
ATOM      7  C           0     137.753 131.363 145.083  0.00  0.00     0.180 C 
ATOM      8  N           0     138.628 130.635 146.027  0.00  0.00    -0.216 N 
ATOM      9  C           0     139.799 131.344 146.136  0.00  0.00     0.670 C 
ATOM     10  N           0     140.919 130.843 146.578  0.00  0.00    -0.235 N 
ATOM     11  H           0     140.960 129.914 146.854  0.00  0.00     0.174 HD
ATOM     12  H           0     141.712 131.400 146.629  0.00  0.00     0.174 HD
ATOM     13  C           0     138.349 132.761 145.036  0.00  0.00     0.217 C 
ATOM     14  N           0     139.646 132.643 145.722  0.00  0.00    -0.191 N 
ATOM     15  N           0     137.512 133.781 145.670  0.00  0.00    -0.183 N 
ATOM     16  C           0     138.003 135.069 145.146  0.00  0.00     0.150 C 
ATOM     17  C           0     138.331 134.779 143.662  0.00  0.00     0.093 C 
ATOM     18  C           0     138.562 133.247 143.593  0.00  0.00     0.209 C 
ATOM     19  H           0     135.672 131.943 147.514  0.00  0.00     0.178 HD
ATOM     20  H           0     138.414 129.809 146.486  0.00  0.00     0.178 HD
ATOM     21  H           0     140.285 133.360 145.856  0.00  0.00     0.180 HD
ENDROOT
BRANCH  18  22
ATOM     22  O           0     139.894 132.964 143.158  0.00  0.00    -0.362 OA
ATOM     23  H           0     140.484 133.218 143.881  0.00  0.00     0.213 HD
ENDBRANCH  18  22
BRANCH  18  24
ATOM     24  O           0     137.611 132.639 142.718  0.00  0.00    -0.362 OA
ATOM     25  H           0     136.771 132.604 143.198  0.00  0.00     0.213 HD
ENDBRANCH  18  24
BRANCH   6  26
ATOM     26  C           0     135.382 131.661 144.435  0.00  0.00     0.192 C 
BRANCH  26  27
ATOM     27  O           0     135.558 130.719 143.374  0.00  0.00    -0.399 OA
ATOM     28  H           0     136.238 130.097 143.663  0.00  0.00     0.209 HD
ENDBRANCH  26  27
ENDBRANCH   6  26
TORSDOF 4
ENDMDL
