# created with PyMOL 2.3.4
@<TRIPOS>MOLECULE
ligand_out_0001
46 49 1                 
SMALL
USER_CHARGES
@<TRIPOS>ATOM
1	   N	135.694	132.655	147.074	N.3	1	UNK0	-0.235	
2	   N	136.972	134.358	146.074	N.3	1	UNK0	-0.218	
3	   N	136.313	136.093	143.614	N.3	1	UNK0	-0.216	
4	   N	134.317	136.890	142.625	N.3	1	UNK0	-0.235	
5	   N	134.635	134.619	143.202	N.3	1	UNK0	-0.191	
6	   N	135.571	133.030	144.767	N.3	1	UNK0	-0.183	
7	   N	139.916	130.765	146.663	N.pl3	1	UNK0	-0.335	
8	   N	139.745	129.225	148.803	N.pl3	1	UNK0	-0.359	
9	   N	135.959	129.236	148.635	N.pl3	1	UNK0	-0.288	
10	   C	136.060	133.319	146.014	C.3	1	UNK0	0.672	
11	   C	137.789	134.630	144.895	C.3	1	UNK0	0.151	
12	   C	136.965	134.766	143.629	C.3	1	UNK0	0.180	
13	   C	135.043	135.926	143.117	C.3	1	UNK0	0.670	
14	   C	135.803	133.788	143.537	C.3	1	UNK0	0.217	
15	   C	134.756	131.870	144.361	C.3	1	UNK0	0.150	
16	   C	135.334	131.457	142.986	C.3	1	UNK0	0.093	
17	   C	136.026	132.732	142.441	C.3	1	UNK0	0.209	
18	   C	138.787	133.485	144.711	C.2	1	UNK0	0.208	
19	   C	140.026	132.025	146.198	C.2	1	UNK0	0.360	
20	   C	141.121	129.974	146.924	C.3	1	UNK0	0.144	
21	   C	140.774	128.804	147.847	C.3	1	UNK0	0.142	
22	   C	138.825	128.341	149.234	C.2	1	UNK0	0.219	
23	   C	137.767	128.772	150.217	C.3	1	UNK0	0.123	
24	   C	136.891	129.854	149.582	C.3	1	UNK0	0.144	
25	   C	134.905	128.509	149.028	C.2	1	UNK0	0.226	
26	   C	134.154	128.025	147.807	C.3	1	UNK0	0.112	
27	   C	134.971	128.595	146.630	C.3	1	UNK0	0.112	
28	   C	136.095	129.346	147.309	C.2	1	UNK0	0.226	
29	   O	138.918	132.752	145.957	O.2	1	UNK0	-0.302	
30	   O	141.123	132.505	145.995	O.co2	1	UNK0	-0.239	
31	   O	138.848	127.196	148.833	O.2	1	UNK0	-0.274	
32	   O	134.597	128.282	150.177	O.2	1	UNK0	-0.273	
33	   O	136.979	129.952	146.741	O.2	1	UNK0	-0.273	
34	   O	135.419	133.143	141.215	O.2	1	UNK0	-0.362	
35	   O	137.423	132.499	142.253	O.2	1	UNK0	-0.362	
36	   H	136.064	132.885	147.941	 H	1	UNK0	0.174	
37	   H	135.049	131.935	146.996	 H	1	UNK0	0.174	
38	   H	134.668	137.795	142.595	 H	1	UNK0	0.174	
39	   H	133.426	136.704	142.290	 H	1	UNK0	0.174	
40	   H	137.064	134.893	146.878	 H	1	UNK0	0.178	
41	   H	136.710	136.930	143.902	 H	1	UNK0	0.178	
42	   H	133.730	134.297	143.061	 H	1	UNK0	0.180	
43	   H	139.040	130.382	146.825	 H	1	UNK0	0.164	
44	   H	139.727	130.140	149.124	 H	1	UNK0	0.162	
45	   H	136.094	133.065	140.528	 H	1	UNK0	0.213	
46	   H	137.890	133.095	142.856	 H	1	UNK0	0.213	
@<TRIPOS>BOND
1 1 10 1
2 1 36 1
3 1 37 1
4 2 11 1
5 2 40 1
6 3 13 1
7 3 41 1
8 4 38 1
9 4 39 1
10 5 42 1
11 6 15 1
12 7 20 1
13 7 43 1
14 8 22 1
15 8 44 1
16 9 25 1
17 9 28 1
18 2 10 1
19 6 10 1
20 11 12 1
21 11 18 1
22 3 12 1
23 12 14 1
24 4 13 1
25 5 13 1
26 5 14 1
27 6 14 1
28 14 17 1
29 15 16 1
30 16 17 1
31 17 34 2
32 17 35 2
33 18 29 2
34 7 19 1
35 19 30 2
36 20 21 1
37 8 21 1
38 22 23 1
39 22 31 2
40 23 24 1
41 9 24 1
42 25 26 1
43 25 32 2
44 26 27 1
45 27 28 1
46 28 33 2
47 19 29 2
48 34 45 1
49 35 46 1
@<TRIPOS>SUBSTRUCTURE
1	UNK0	1	GROUP	1 ****	UNK
