MODEL 1
REMARK VINA RESULT:      -8.2      0.000      0.000
REMARK  18 active torsions:
REMARK  status: ('A' for Active; 'I' for Inactive)
REMARK    1  A    between atoms: C_6  and  C_7 
REMARK    2  A    between atoms: C_7  and  O_8 
REMARK    3  A    between atoms: O_8  and  C_9 
REMARK       I    between atoms: C_9  and  N_10 
REMARK    4  A    between atoms: N_10  and  C_11 
REMARK    5  A    between atoms: C_11  and  C_12 
REMARK    6  A    between atoms: C_12  and  C_13 
REMARK    7  A    between atoms: C_13  and  C_14 
REMARK    8  A    between atoms: C_14  and  C_15 
REMARK    9  A    between atoms: C_15  and  C_16 
REMARK   10  A    between atoms: C_16  and  N_17 
REMARK       I    between atoms: N_17  and  C_18 
REMARK   11  A    between atoms: C_18  and  C_19 
REMARK   12  A    between atoms: C_19  and  N_20 
REMARK       I    between atoms: N_20  and  C_21 
REMARK   13  A    between atoms: C_21  and  C_22 
REMARK   14  A    between atoms: C_27  and  N_28 
REMARK   15  A    between atoms: N_28  and  C_29 
REMARK   16  A    between atoms: N_28  and  C_31 
REMARK   17  A    between atoms: C_52  and  O_53 
REMARK   18  A    between atoms: C_52  and  O_54 
ROOT
ATOM      1  C           0     133.798 134.351 140.158  0.00  0.00     0.360 C 
ATOM      2  N           0     133.400 135.271 139.257  0.00  0.00    -0.337 N 
ATOM      3  O           0     134.647 133.535 139.857  0.00  0.00    -0.239 OA
ATOM      4  H           0     132.722 135.923 139.497  0.00  0.00     0.164 HD
ENDROOT
BRANCH   2   5
ATOM      5  C           0     133.990 135.287 137.917  0.00  0.00     0.125 C 
BRANCH   5   6
ATOM      6  C           0     132.903 135.000 136.878  0.00  0.00     0.020 C 
BRANCH   6   7
ATOM      7  C           0     133.551 134.787 135.507  0.00  0.00     0.002 C 
BRANCH   7   8
ATOM      8  C           0     132.744 135.531 134.442  0.00  0.00     0.002 C 
BRANCH   8   9
ATOM      9  C           0     132.009 136.708 135.087  0.00  0.00     0.020 C 
BRANCH   9  10
ATOM     10  C           0     131.409 137.595 133.995  0.00  0.00     0.122 C 
BRANCH  10  11
ATOM     11  N           0     130.719 136.758 133.010  0.00  0.00    -0.360 N 
ATOM     12  C           0     130.217 137.313 131.889  0.00  0.00     0.235 C 
ATOM     13  O           0     130.336 138.504 131.696  0.00  0.00    -0.272 OA
ATOM     14  H           0     130.623 135.806 133.165  0.00  0.00     0.162 HD
BRANCH  12  15
ATOM     15  C           0     129.508 136.452 130.875  0.00  0.00     0.225 C 
BRANCH  15  16
ATOM     16  N           0     130.023 135.083 130.951  0.00  0.00    -0.348 N 
ATOM     17  C           0     129.401 134.170 131.723  0.00  0.00     0.258 C 
ATOM     18  O           0     128.409 134.483 132.355  0.00  0.00    -0.267 OA
ATOM     19  H           0     130.813 134.833 130.447  0.00  0.00     0.163 HD
BRANCH  17  20
ATOM     20  C           0     129.919 132.795 131.799  0.00  0.00     0.108 C 
ATOM     21  C           0     129.137 131.656 131.290  0.00  0.00     0.304 C 
ATOM     22  O           0     129.824 130.543 130.924  0.00  0.00    -0.274 OA
ATOM     23  O           0     127.925 131.710 131.191  0.00  0.00    -0.259 OA
ATOM     24  C           0     130.906 130.195 131.665  0.00  0.00     0.091 A 
ATOM     25  C           0     131.618 131.185 132.374  0.00  0.00    -0.001 A 
ATOM     26  C           0     131.329 128.878 131.716  0.00  0.00     0.067 A 
ATOM     27  C           0     131.162 132.524 132.361  0.00  0.00     0.037 C 
ATOM     28  C           0     132.771 130.833 133.095  0.00  0.00     0.016 A 
ATOM     29  C           0     133.179 129.534 133.129  0.00  0.00     0.030 A 
ATOM     30  C           0     132.462 128.547 132.448  0.00  0.00     0.032 A 
BRANCH  30  31
ATOM     31  N           0     132.885 127.224 132.502  0.00  0.00    -0.382 N 
BRANCH  31  32
ATOM     32  C           0     134.299 126.914 132.720  0.00  0.00     0.118 C 
ATOM     33  C           0     134.985 126.685 131.372  0.00  0.00     0.026 C 
ENDBRANCH  31  32
BRANCH  31  34
ATOM     34  C           0     131.913 126.139 132.343  0.00  0.00     0.118 C 
ATOM     35  C           0     132.278 124.986 133.280  0.00  0.00     0.026 C 
ENDBRANCH  31  34
ENDBRANCH  30  31
ENDBRANCH  17  20
ENDBRANCH  15  16
ENDBRANCH  12  15
ENDBRANCH  10  11
ENDBRANCH   9  10
ENDBRANCH   8   9
ENDBRANCH   7   8
ENDBRANCH   6   7
ENDBRANCH   5   6
ENDBRANCH   2   5
BRANCH   1  36
ATOM     36  O           0     133.256 134.336 141.390  0.00  0.00    -0.302 OA
BRANCH  36  37
ATOM     37  C           0     134.016 133.812 142.511  0.00  0.00     0.208 C 
BRANCH  37  38
ATOM     38  C           0     134.211 134.914 143.554  0.00  0.00     0.151 C 
ATOM     39  N           0     135.505 135.550 143.331  0.00  0.00    -0.218 N 
ATOM     40  C           0     136.650 134.823 143.606  0.00  0.00     0.672 C 
ATOM     41  H           0     135.562 136.459 142.998  0.00  0.00     0.178 HD
ATOM     42  N           0     137.774 135.033 142.980  0.00  0.00    -0.235 N 
ATOM     43  N           0     136.524 133.862 144.575  0.00  0.00    -0.183 N 
ATOM     44  H           0     137.826 135.719 142.296  0.00  0.00     0.174 HD
ATOM     45  H           0     138.559 134.508 143.201  0.00  0.00     0.174 HD
ATOM     46  C           0     135.361 133.629 145.432  0.00  0.00     0.217 C 
ATOM     47  C           0     137.491 132.810 144.939  0.00  0.00     0.150 C 
ATOM     48  C           0     134.090 134.303 144.937  0.00  0.00     0.180 C 
ATOM     49  C           0     135.208 132.102 145.509  0.00  0.00     0.209 C 
ATOM     50  N           0     135.581 134.179 146.780  0.00  0.00    -0.191 N 
ATOM     51  N           0     133.851 135.378 145.924  0.00  0.00    -0.216 N 
ATOM     52  C           0     134.577 135.076 147.049  0.00  0.00     0.670 C 
ATOM     53  H           0     133.283 136.154 145.799  0.00  0.00     0.178 HD
ATOM     54  N           0     134.342 135.580 148.229  0.00  0.00    -0.235 N 
ATOM     55  H           0     133.615 136.210 148.351  0.00  0.00     0.174 HD
ATOM     56  H           0     134.895 135.323 148.984  0.00  0.00     0.174 HD
ATOM     57  C           0     136.620 131.555 145.181  0.00  0.00     0.093 C 
ATOM     58  H           0     136.309 133.947 147.376  0.00  0.00     0.180 HD
BRANCH  49  59
ATOM     59  O           0     134.813 131.700 146.822  0.00  0.00    -0.362 OA
ATOM     60  H           0     134.068 132.262 147.075  0.00  0.00     0.213 HD
ENDBRANCH  49  59
BRANCH  49  61
ATOM     61  O           0     134.260 131.647 144.541  0.00  0.00    -0.362 OA
ATOM     62  H           0     133.538 132.290 144.533  0.00  0.00     0.213 HD
ENDBRANCH  49  61
ENDBRANCH  37  38
ENDBRANCH  36  37
ENDBRANCH   1  36
TORSDOF 18
ENDMDL
MODEL 2
REMARK VINA RESULT:      -8.0      2.463      3.103
REMARK  18 active torsions:
REMARK  status: ('A' for Active; 'I' for Inactive)
REMARK    1  A    between atoms: C_6  and  C_7 
REMARK    2  A    between atoms: C_7  and  O_8 
REMARK    3  A    between atoms: O_8  and  C_9 
REMARK       I    between atoms: C_9  and  N_10 
REMARK    4  A    between atoms: N_10  and  C_11 
REMARK    5  A    between atoms: C_11  and  C_12 
REMARK    6  A    between atoms: C_12  and  C_13 
REMARK    7  A    between atoms: C_13  and  C_14 
REMARK    8  A    between atoms: C_14  and  C_15 
REMARK    9  A    between atoms: C_15  and  C_16 
REMARK   10  A    between atoms: C_16  and  N_17 
REMARK       I    between atoms: N_17  and  C_18 
REMARK   11  A    between atoms: C_18  and  C_19 
REMARK   12  A    between atoms: C_19  and  N_20 
REMARK       I    between atoms: N_20  and  C_21 
REMARK   13  A    between atoms: C_21  and  C_22 
REMARK   14  A    between atoms: C_27  and  N_28 
REMARK   15  A    between atoms: N_28  and  C_29 
REMARK   16  A    between atoms: N_28  and  C_31 
REMARK   17  A    between atoms: C_52  and  O_53 
REMARK   18  A    between atoms: C_52  and  O_54 
ROOT
ATOM      1  C           0     133.497 134.876 138.936  0.00  0.00     0.360 C 
ATOM      2  N           0     132.533 135.293 138.091  0.00  0.00    -0.337 N 
ATOM      3  O           0     134.601 134.604 138.510  0.00  0.00    -0.239 OA
ATOM      4  H           0     131.650 135.510 138.431  0.00  0.00     0.164 HD
ENDROOT
BRANCH   2   5
ATOM      5  C           0     132.818 135.417 136.660  0.00  0.00     0.125 C 
BRANCH   5   6
ATOM      6  C           0     132.010 134.372 135.887  0.00  0.00     0.020 C 
BRANCH   6   7
ATOM      7  C           0     130.948 135.075 135.037  0.00  0.00     0.002 C 
BRANCH   7   8
ATOM      8  C           0     131.484 135.279 133.619  0.00  0.00     0.002 C 
BRANCH   8   9
ATOM      9  C           0     131.064 136.659 133.109  0.00  0.00     0.020 C 
BRANCH   9  10
ATOM     10  C           0     132.304 137.538 132.933  0.00  0.00     0.122 C 
BRANCH  10  11
ATOM     11  N           0     133.209 136.916 131.961  0.00  0.00    -0.360 N 
ATOM     12  C           0     134.395 136.422 132.366  0.00  0.00     0.235 C 
ATOM     13  O           0     134.714 136.492 133.534  0.00  0.00    -0.272 OA
ATOM     14  H           0     132.954 136.861 131.028  0.00  0.00     0.162 HD
BRANCH  12  15
ATOM     15  C           0     135.325 135.782 131.368  0.00  0.00     0.225 C 
BRANCH  15  16
ATOM     16  N           0     135.365 134.335 131.594  0.00  0.00    -0.348 N 
ATOM     17  C           0     134.282 133.580 131.322  0.00  0.00     0.258 C 
ATOM     18  O           0     133.272 134.101 130.887  0.00  0.00    -0.267 OA
ATOM     19  H           0     136.170 133.921 131.941  0.00  0.00     0.163 HD
BRANCH  17  20
ATOM     20  C           0     134.322 132.127 131.550  0.00  0.00     0.108 C 
ATOM     21  C           0     135.599 131.396 131.584  0.00  0.00     0.304 C 
ATOM     22  O           0     135.627 130.226 132.273  0.00  0.00    -0.274 OA
ATOM     23  O           0     136.593 131.824 131.026  0.00  0.00    -0.259 OA
ATOM     24  C           0     134.528 129.433 132.221  0.00  0.00     0.091 A 
ATOM     25  C           0     133.261 130.007 131.983  0.00  0.00    -0.001 A 
ATOM     26  C           0     134.635 128.067 132.420  0.00  0.00     0.067 A 
ATOM     27  C           0     133.154 131.395 131.734  0.00  0.00     0.037 C 
ATOM     28  C           0     132.116 129.194 131.986  0.00  0.00     0.016 A 
ATOM     29  C           0     132.238 127.852 132.190  0.00  0.00     0.030 A 
ATOM     30  C           0     133.492 127.277 132.403  0.00  0.00     0.032 A 
BRANCH  30  31
ATOM     31  N           0     133.601 125.906 132.598  0.00  0.00    -0.382 N 
BRANCH  31  32
ATOM     32  C           0     134.921 125.278 132.678  0.00  0.00     0.118 C 
ATOM     33  C           0     135.475 125.072 131.266  0.00  0.00     0.026 C 
ENDBRANCH  31  32
BRANCH  31  34
ATOM     34  C           0     132.392 125.088 132.725  0.00  0.00     0.118 C 
ATOM     35  C           0     132.143 124.772 134.202  0.00  0.00     0.026 C 
ENDBRANCH  31  34
ENDBRANCH  30  31
ENDBRANCH  17  20
ENDBRANCH  15  16
ENDBRANCH  12  15
ENDBRANCH  10  11
ENDBRANCH   9  10
ENDBRANCH   8   9
ENDBRANCH   7   8
ENDBRANCH   6   7
ENDBRANCH   5   6
ENDBRANCH   2   5
BRANCH   1  36
ATOM     36  O           0     133.235 134.761 140.252  0.00  0.00    -0.302 OA
BRANCH  36  37
ATOM     37  C           0     134.227 134.186 141.142  0.00  0.00     0.208 C 
BRANCH  37  38
ATOM     38  C           0     134.077 134.797 142.536  0.00  0.00     0.151 C 
ATOM     39  N           0     135.340 135.423 142.916  0.00  0.00    -0.218 N 
ATOM     40  C           0     136.423 134.604 143.183  0.00  0.00     0.672 C 
ATOM     41  H           0     135.419 136.387 142.979  0.00  0.00     0.178 HD
ATOM     42  N           0     137.652 134.996 142.999  0.00  0.00    -0.235 N 
ATOM     43  N           0     136.119 133.351 143.647  0.00  0.00    -0.183 N 
ATOM     44  H           0     137.831 135.889 142.665  0.00  0.00     0.174 HD
ATOM     45  H           0     138.389 134.398 143.201  0.00  0.00     0.174 HD
ATOM     46  C           0     134.795 132.851 144.017  0.00  0.00     0.217 C 
ATOM     47  C           0     137.031 132.205 143.824  0.00  0.00     0.150 C 
ATOM     48  C           0     133.650 133.709 143.502  0.00  0.00     0.180 C 
ATOM     49  C           0     134.730 131.416 143.468  0.00  0.00     0.209 C 
ATOM     50  N           0     134.628 132.835 145.480  0.00  0.00    -0.191 N 
ATOM     51  N           0     133.096 134.332 144.723  0.00  0.00    -0.216 N 
ATOM     52  C           0     133.531 133.597 145.798  0.00  0.00     0.670 C 
ATOM     53  H           0     132.528 135.117 144.759  0.00  0.00     0.178 HD
ATOM     54  N           0     132.971 133.619 146.975  0.00  0.00    -0.235 N 
ATOM     55  H           0     132.197 134.180 147.133  0.00  0.00     0.174 HD
ATOM     56  H           0     133.330 133.072 147.693  0.00  0.00     0.174 HD
ATOM     57  C           0     136.213 130.986 143.337  0.00  0.00     0.093 C 
ATOM     58  H           0     135.195 132.365 146.111  0.00  0.00     0.180 HD
BRANCH  49  59
ATOM     59  O           0     134.042 130.558 144.380  0.00  0.00    -0.362 OA
ATOM     60  H           0     134.576 129.756 144.468  0.00  0.00     0.213 HD
ENDBRANCH  49  59
BRANCH  49  61
ATOM     61  O           0     134.092 131.401 142.190  0.00  0.00    -0.362 OA
ATOM     62  H           0     133.159 131.200 142.345  0.00  0.00     0.213 HD
ENDBRANCH  49  61
ENDBRANCH  37  38
ENDBRANCH  36  37
ENDBRANCH   1  36
TORSDOF 18
ENDMDL
MODEL 3
REMARK VINA RESULT:      -7.7      3.478      6.501
REMARK  18 active torsions:
REMARK  status: ('A' for Active; 'I' for Inactive)
REMARK    1  A    between atoms: C_6  and  C_7 
REMARK    2  A    between atoms: C_7  and  O_8 
REMARK    3  A    between atoms: O_8  and  C_9 
REMARK       I    between atoms: C_9  and  N_10 
REMARK    4  A    between atoms: N_10  and  C_11 
REMARK    5  A    between atoms: C_11  and  C_12 
REMARK    6  A    between atoms: C_12  and  C_13 
REMARK    7  A    between atoms: C_13  and  C_14 
REMARK    8  A    between atoms: C_14  and  C_15 
REMARK    9  A    between atoms: C_15  and  C_16 
REMARK   10  A    between atoms: C_16  and  N_17 
REMARK       I    between atoms: N_17  and  C_18 
REMARK   11  A    between atoms: C_18  and  C_19 
REMARK   12  A    between atoms: C_19  and  N_20 
REMARK       I    between atoms: N_20  and  C_21 
REMARK   13  A    between atoms: C_21  and  C_22 
REMARK   14  A    between atoms: C_27  and  N_28 
REMARK   15  A    between atoms: N_28  and  C_29 
REMARK   16  A    between atoms: N_28  and  C_31 
REMARK   17  A    between atoms: C_52  and  O_53 
REMARK   18  A    between atoms: C_52  and  O_54 
ROOT
ATOM      1  C           0     139.971 132.423 145.225  0.00  0.00     0.360 C 
ATOM      2  N           0     138.825 132.784 144.615  0.00  0.00    -0.337 N 
ATOM      3  O           0     141.040 132.751 144.751  0.00  0.00    -0.239 OA
ATOM      4  H           0     137.971 132.522 144.994  0.00  0.00     0.164 HD
ENDROOT
BRANCH   2   5
ATOM      5  C           0     138.868 133.572 143.382  0.00  0.00     0.125 C 
BRANCH   5   6
ATOM      6  C           0     137.443 133.923 142.951  0.00  0.00     0.020 C 
BRANCH   6   7
ATOM      7  C           0     136.603 132.646 142.873  0.00  0.00     0.002 C 
BRANCH   7   8
ATOM      8  C           0     135.656 132.730 141.675  0.00  0.00     0.002 C 
BRANCH   8   9
ATOM      9  C           0     134.278 132.200 142.076  0.00  0.00     0.020 C 
BRANCH   9  10
ATOM     10  C           0     133.258 133.339 142.026  0.00  0.00     0.122 C 
BRANCH  10  11
ATOM     11  N           0     133.152 133.840 140.653  0.00  0.00    -0.360 N 
ATOM     12  C           0     133.349 135.148 140.397  0.00  0.00     0.235 C 
ATOM     13  O           0     133.612 135.911 141.302  0.00  0.00    -0.272 OA
ATOM     14  H           0     132.940 133.231 139.930  0.00  0.00     0.162 HD
BRANCH  12  15
ATOM     15  C           0     133.240 135.664 138.985  0.00  0.00     0.225 C 
BRANCH  15  16
ATOM     16  N           0     132.836 134.571 138.096  0.00  0.00    -0.348 N 
ATOM     17  C           0     132.376 134.843 136.859  0.00  0.00     0.258 C 
ATOM     18  O           0     132.296 135.997 136.480  0.00  0.00    -0.267 OA
ATOM     19  H           0     132.900 133.651 138.398  0.00  0.00     0.163 HD
BRANCH  17  20
ATOM     20  C           0     131.970 133.746 135.967  0.00  0.00     0.108 C 
ATOM     21  C           0     131.090 132.664 136.439  0.00  0.00     0.304 C 
ATOM     22  O           0     130.363 132.001 135.504  0.00  0.00    -0.274 OA
ATOM     23  O           0     131.008 132.381 137.620  0.00  0.00    -0.259 OA
ATOM     24  C           0     130.942 131.767 134.300  0.00  0.00     0.091 A 
ATOM     25  C           0     131.957 132.628 133.832  0.00  0.00    -0.001 A 
ATOM     26  C           0     130.532 130.701 133.517  0.00  0.00     0.067 A 
ATOM     27  C           0     132.410 133.690 134.649  0.00  0.00     0.037 C 
ATOM     28  C           0     132.516 132.418 132.561  0.00  0.00     0.016 A 
ATOM     29  C           0     132.097 131.370 131.799  0.00  0.00     0.030 A 
ATOM     30  C           0     131.109 130.501 132.269  0.00  0.00     0.032 A 
BRANCH  30  31
ATOM     31  N           0     130.701 129.430 131.486  0.00  0.00    -0.382 N 
BRANCH  31  32
ATOM     32  C           0     131.696 128.536 130.888  0.00  0.00     0.118 C 
ATOM     33  C           0     132.415 127.761 131.994  0.00  0.00     0.026 C 
ENDBRANCH  31  32
BRANCH  31  34
ATOM     34  C           0     129.273 129.193 131.257  0.00  0.00     0.118 C 
ATOM     35  C           0     128.786 128.077 132.186  0.00  0.00     0.026 C 
ENDBRANCH  31  34
ENDBRANCH  30  31
ENDBRANCH  17  20
ENDBRANCH  15  16
ENDBRANCH  12  15
ENDBRANCH  10  11
ENDBRANCH   9  10
ENDBRANCH   8   9
ENDBRANCH   7   8
ENDBRANCH   6   7
ENDBRANCH   5   6
ENDBRANCH   2   5
BRANCH   1  36
ATOM     36  O           0     139.932 131.699 146.360  0.00  0.00    -0.302 OA
BRANCH  36  37
ATOM     37  C           0     139.182 132.183 147.504  0.00  0.00     0.208 C 
BRANCH  37  38
ATOM     38  C           0     137.697 131.872 147.310  0.00  0.00     0.151 C 
ATOM     39  N           0     136.953 132.385 148.455  0.00  0.00    -0.218 N 
ATOM     40  C           0     137.119 131.760 149.679  0.00  0.00     0.672 C 
ATOM     41  H           0     136.357 133.145 148.363  0.00  0.00     0.178 HD
ATOM     42  N           0     136.974 132.394 150.808  0.00  0.00    -0.235 N 
ATOM     43  N           0     137.453 130.432 149.626  0.00  0.00    -0.183 N 
ATOM     44  H           0     136.741 133.336 150.809  0.00  0.00     0.174 HD
ATOM     45  H           0     137.094 131.923 151.649  0.00  0.00     0.174 HD
ATOM     46  C           0     137.510 129.590 148.430  0.00  0.00     0.217 C 
ATOM     47  C           0     137.887 129.562 150.734  0.00  0.00     0.150 C 
ATOM     48  C           0     137.531 130.376 147.128  0.00  0.00     0.180 C 
ATOM     49  C           0     138.768 128.723 148.599  0.00  0.00     0.209 C 
ATOM     50  N           0     136.319 128.730 148.334  0.00  0.00    -0.191 N 
ATOM     51  N           0     136.208 130.102 146.526  0.00  0.00    -0.216 N 
ATOM     52  C           0     135.701 128.980 147.134  0.00  0.00     0.670 C 
ATOM     53  H           0     135.778 130.620 145.829  0.00  0.00     0.178 HD
ATOM     54  N           0     134.750 128.242 146.632  0.00  0.00    -0.235 N 
ATOM     55  H           0     134.356 128.475 145.778  0.00  0.00     0.174 HD
ATOM     56  H           0     134.438 127.460 147.114  0.00  0.00     0.174 HD
ATOM     57  C           0     139.022 128.704 150.127  0.00  0.00     0.093 C 
ATOM     58  H           0     136.022 128.095 149.004  0.00  0.00     0.180 HD
BRANCH  49  59
ATOM     59  O           0     138.536 127.398 148.117  0.00  0.00    -0.362 OA
ATOM     60  H           0     139.399 127.029 147.884  0.00  0.00     0.213 HD
ENDBRANCH  49  59
BRANCH  49  61
ATOM     61  O           0     139.876 129.316 147.917  0.00  0.00    -0.362 OA
ATOM     62  H           0     139.507 129.887 147.229  0.00  0.00     0.213 HD
ENDBRANCH  49  61
ENDBRANCH  37  38
ENDBRANCH  36  37
ENDBRANCH   1  36
TORSDOF 18
ENDMDL
MODEL 4
REMARK VINA RESULT:      -7.7      3.037      4.481
REMARK  18 active torsions:
REMARK  status: ('A' for Active; 'I' for Inactive)
REMARK    1  A    between atoms: C_6  and  C_7 
REMARK    2  A    between atoms: C_7  and  O_8 
REMARK    3  A    between atoms: O_8  and  C_9 
REMARK       I    between atoms: C_9  and  N_10 
REMARK    4  A    between atoms: N_10  and  C_11 
REMARK    5  A    between atoms: C_11  and  C_12 
REMARK    6  A    between atoms: C_12  and  C_13 
REMARK    7  A    between atoms: C_13  and  C_14 
REMARK    8  A    between atoms: C_14  and  C_15 
REMARK    9  A    between atoms: C_15  and  C_16 
REMARK   10  A    between atoms: C_16  and  N_17 
REMARK       I    between atoms: N_17  and  C_18 
REMARK   11  A    between atoms: C_18  and  C_19 
REMARK   12  A    between atoms: C_19  and  N_20 
REMARK       I    between atoms: N_20  and  C_21 
REMARK   13  A    between atoms: C_21  and  C_22 
REMARK   14  A    between atoms: C_27  and  N_28 
REMARK   15  A    between atoms: N_28  and  C_29 
REMARK   16  A    between atoms: N_28  and  C_31 
REMARK   17  A    between atoms: C_52  and  O_53 
REMARK   18  A    between atoms: C_52  and  O_54 
ROOT
ATOM      1  C           0     137.552 133.136 142.928  0.00  0.00     0.360 C 
ATOM      2  N           0     136.509 132.359 142.575  0.00  0.00    -0.337 N 
ATOM      3  O           0     137.635 134.271 142.500  0.00  0.00    -0.239 OA
ATOM      4  H           0     136.443 131.452 142.916  0.00  0.00     0.164 HD
ENDROOT
BRANCH   2   5
ATOM      5  C           0     135.477 132.880 141.678  0.00  0.00     0.125 C 
BRANCH   5   6
ATOM      6  C           0     134.109 132.345 142.108  0.00  0.00     0.020 C 
BRANCH   6   7
ATOM      7  C           0     133.009 133.068 141.327  0.00  0.00     0.002 C 
BRANCH   7   8
ATOM      8  C           0     133.564 134.376 140.758  0.00  0.00     0.002 C 
BRANCH   8   9
ATOM      9  C           0     133.025 134.586 139.342  0.00  0.00     0.020 C 
BRANCH   9  10
ATOM     10  C           0     133.914 135.586 138.600  0.00  0.00     0.122 C 
BRANCH  10  11
ATOM     11  N           0     133.812 135.354 137.157  0.00  0.00    -0.360 N 
ATOM     12  C           0     134.838 135.683 136.348  0.00  0.00     0.235 C 
ATOM     13  O           0     135.845 136.171 136.814  0.00  0.00    -0.272 OA
ATOM     14  H           0     133.006 134.964 136.785  0.00  0.00     0.162 HD
BRANCH  12  15
ATOM     15  C           0     134.733 135.444 134.864  0.00  0.00     0.225 C 
BRANCH  15  16
ATOM     16  N           0     134.298 134.066 134.621  0.00  0.00    -0.348 N 
ATOM     17  C           0     133.130 133.829 133.991  0.00  0.00     0.258 C 
ATOM     18  O           0     132.438 134.760 133.623  0.00  0.00    -0.267 OA
ATOM     19  H           0     134.850 133.324 134.913  0.00  0.00     0.163 HD
BRANCH  17  20
ATOM     20  C           0     132.692 132.446 133.747  0.00  0.00     0.108 C 
ATOM     21  C           0     131.608 131.838 134.536  0.00  0.00     0.304 C 
ATOM     22  O           0     130.925 130.812 133.968  0.00  0.00    -0.274 OA
ATOM     23  O           0     131.327 132.244 135.649  0.00  0.00    -0.259 OA
ATOM     24  C           0     131.621 129.934 133.202  0.00  0.00     0.091 A 
ATOM     25  C           0     132.805 130.352 132.559  0.00  0.00    -0.001 A 
ATOM     26  C           0     131.170 128.637 133.032  0.00  0.00     0.067 A 
ATOM     27  C           0     133.293 131.663 132.767  0.00  0.00     0.037 C 
ATOM     28  C           0     133.494 129.460 131.721  0.00  0.00     0.016 A 
ATOM     29  C           0     133.033 128.189 131.557  0.00  0.00     0.030 A 
ATOM     30  C           0     131.875 127.764 132.212  0.00  0.00     0.032 A 
BRANCH  30  31
ATOM     31  N           0     131.424 126.461 132.045  0.00  0.00    -0.382 N 
BRANCH  31  32
ATOM     32  C           0     130.117 126.210 131.434  0.00  0.00     0.118 C 
ATOM     33  C           0     129.052 127.051 132.142  0.00  0.00     0.026 C 
ENDBRANCH  31  32
BRANCH  31  34
ATOM     34  C           0     132.257 125.337 132.479  0.00  0.00     0.118 C 
ATOM     35  C           0     131.848 124.914 133.892  0.00  0.00     0.026 C 
ENDBRANCH  31  34
ENDBRANCH  30  31
ENDBRANCH  17  20
ENDBRANCH  15  16
ENDBRANCH  12  15
ENDBRANCH  10  11
ENDBRANCH   9  10
ENDBRANCH   8   9
ENDBRANCH   7   8
ENDBRANCH   6   7
ENDBRANCH   5   6
ENDBRANCH   2   5
BRANCH   1  36
ATOM     36  O           0     138.502 132.657 143.753  0.00  0.00    -0.302 OA
BRANCH  36  37
ATOM     37  C           0     138.845 133.381 144.963  0.00  0.00     0.208 C 
BRANCH  37  38
ATOM     38  C           0     137.570 133.697 145.747  0.00  0.00     0.151 C 
ATOM     39  N           0     137.911 134.556 146.877  0.00  0.00    -0.218 N 
ATOM     40  C           0     138.644 134.011 147.917  0.00  0.00     0.672 C 
ATOM     41  H           0     137.632 135.484 146.899  0.00  0.00     0.178 HD
ATOM     42  N           0     139.437 134.732 148.659  0.00  0.00    -0.235 N 
ATOM     43  N           0     138.488 132.664 148.111  0.00  0.00    -0.183 N 
ATOM     44  H           0     139.528 135.683 148.491  0.00  0.00     0.174 HD
ATOM     45  H           0     139.933 134.318 149.383  0.00  0.00     0.174 HD
ATOM     46  C           0     137.532 131.786 147.434  0.00  0.00     0.217 C 
ATOM     47  C           0     139.273 131.778 148.991  0.00  0.00     0.150 C 
ATOM     48  C           0     136.927 132.393 146.178  0.00  0.00     0.180 C 
ATOM     49  C           0     138.306 130.493 147.132  0.00  0.00     0.209 C 
ATOM     50  N           0     136.382 131.489 148.304  0.00  0.00    -0.191 N 
ATOM     51  N           0     135.518 132.645 146.549  0.00  0.00    -0.216 N 
ATOM     52  C           0     135.237 131.881 147.655  0.00  0.00     0.670 C 
ATOM     53  H           0     134.903 133.240 146.093  0.00  0.00     0.178 HD
ATOM     54  N           0     134.032 131.565 148.040  0.00  0.00    -0.235 N 
ATOM     55  H           0     133.265 131.875 147.535  0.00  0.00     0.174 HD
ATOM     56  H           0     133.904 131.020 148.833  0.00  0.00     0.174 HD
ATOM     57  C           0     139.464 130.486 148.163  0.00  0.00     0.093 C 
ATOM     58  H           0     136.425 131.085 149.184  0.00  0.00     0.180 HD
BRANCH  49  59
ATOM     59  O           0     137.470 129.350 147.317  0.00  0.00    -0.362 OA
ATOM     60  H           0     137.887 128.617 146.843  0.00  0.00     0.213 HD
ENDBRANCH  49  59
BRANCH  49  61
ATOM     61  O           0     138.825 130.523 145.801  0.00  0.00    -0.362 OA
ATOM     62  H           0     139.013 129.607 145.554  0.00  0.00     0.213 HD
ENDBRANCH  49  61
ENDBRANCH  37  38
ENDBRANCH  36  37
ENDBRANCH   1  36
TORSDOF 18
ENDMDL
MODEL 5
REMARK VINA RESULT:      -7.6      4.154      8.603
REMARK  18 active torsions:
REMARK  status: ('A' for Active; 'I' for Inactive)
REMARK    1  A    between atoms: C_6  and  C_7 
REMARK    2  A    between atoms: C_7  and  O_8 
REMARK    3  A    between atoms: O_8  and  C_9 
REMARK       I    between atoms: C_9  and  N_10 
REMARK    4  A    between atoms: N_10  and  C_11 
REMARK    5  A    between atoms: C_11  and  C_12 
REMARK    6  A    between atoms: C_12  and  C_13 
REMARK    7  A    between atoms: C_13  and  C_14 
REMARK    8  A    between atoms: C_14  and  C_15 
REMARK    9  A    between atoms: C_15  and  C_16 
REMARK   10  A    between atoms: C_16  and  N_17 
REMARK       I    between atoms: N_17  and  C_18 
REMARK   11  A    between atoms: C_18  and  C_19 
REMARK   12  A    between atoms: C_19  and  N_20 
REMARK       I    between atoms: N_20  and  C_21 
REMARK   13  A    between atoms: C_21  and  C_22 
REMARK   14  A    between atoms: C_27  and  N_28 
REMARK   15  A    between atoms: N_28  and  C_29 
REMARK   16  A    between atoms: N_28  and  C_31 
REMARK   17  A    between atoms: C_52  and  O_53 
REMARK   18  A    between atoms: C_52  and  O_54 
ROOT
ATOM      1  C           0     134.618 130.348 148.444  0.00  0.00     0.360 C 
ATOM      2  N           0     134.121 131.581 148.667  0.00  0.00    -0.337 N 
ATOM      3  O           0     134.025 129.371 148.856  0.00  0.00    -0.239 OA
ATOM      4  H           0     134.595 132.362 148.338  0.00  0.00     0.164 HD
ENDROOT
BRANCH   2   5
ATOM      5  C           0     132.867 131.743 149.405  0.00  0.00     0.125 C 
BRANCH   5   6
ATOM      6  C           0     132.504 133.228 149.474  0.00  0.00     0.020 C 
BRANCH   6   7
ATOM      7  C           0     133.221 133.981 148.351  0.00  0.00     0.002 C 
BRANCH   7   8
ATOM      8  C           0     132.191 134.495 147.344  0.00  0.00     0.002 C 
BRANCH   8   9
ATOM      9  C           0     132.875 135.436 146.350  0.00  0.00     0.020 C 
BRANCH   9  10
ATOM     10  C           0     134.026 134.702 145.660  0.00  0.00     0.122 C 
BRANCH  10  11
ATOM     11  N           0     133.484 133.701 144.736  0.00  0.00    -0.360 N 
ATOM     12  C           0     133.937 133.641 143.469  0.00  0.00     0.235 C 
ATOM     13  O           0     134.792 134.413 143.092  0.00  0.00    -0.272 OA
ATOM     14  H           0     132.800 133.084 145.037  0.00  0.00     0.162 HD
BRANCH  12  15
ATOM     15  C           0     133.379 132.612 142.519  0.00  0.00     0.225 C 
BRANCH  15  16
ATOM     16  N           0     133.389 133.150 141.156  0.00  0.00    -0.348 N 
ATOM     17  C           0     132.230 133.315 140.487  0.00  0.00     0.258 C 
ATOM     18  O           0     131.176 133.017 141.017  0.00  0.00    -0.267 OA
ATOM     19  H           0     134.229 133.388 140.734  0.00  0.00     0.163 HD
BRANCH  17  20
ATOM     20  C           0     132.240 133.855 139.119  0.00  0.00     0.108 C 
ATOM     21  C           0     132.989 135.079 138.788  0.00  0.00     0.304 C 
ATOM     22  O           0     133.377 135.240 137.496  0.00  0.00    -0.274 OA
ATOM     23  O           0     133.257 135.909 139.636  0.00  0.00    -0.259 OA
ATOM     24  C           0     132.532 134.818 136.523  0.00  0.00     0.091 A 
ATOM     25  C           0     131.615 133.780 136.793  0.00  0.00    -0.001 A 
ATOM     26  C           0     132.574 135.385 135.261  0.00  0.00     0.067 A 
ATOM     27  C           0     131.538 133.231 138.094  0.00  0.00     0.037 C 
ATOM     28  C           0     130.780 133.306 135.768  0.00  0.00     0.016 A 
ATOM     29  C           0     130.839 133.868 134.529  0.00  0.00     0.030 A 
ATOM     30  C           0     131.728 134.912 134.265  0.00  0.00     0.032 A 
BRANCH  30  31
ATOM     31  N           0     131.767 135.484 133.000  0.00  0.00    -0.382 N 
BRANCH  31  32
ATOM     32  C           0     132.069 134.656 131.830  0.00  0.00     0.118 C 
ATOM     33  C           0     133.420 133.964 132.028  0.00  0.00     0.026 C 
ENDBRANCH  31  32
BRANCH  31  34
ATOM     34  C           0     131.506 136.916 132.835  0.00  0.00     0.118 C 
ATOM     35  C           0     130.161 137.111 132.132  0.00  0.00     0.026 C 
ENDBRANCH  31  34
ENDBRANCH  30  31
ENDBRANCH  17  20
ENDBRANCH  15  16
ENDBRANCH  12  15
ENDBRANCH  10  11
ENDBRANCH   9  10
ENDBRANCH   8   9
ENDBRANCH   7   8
ENDBRANCH   6   7
ENDBRANCH   5   6
ENDBRANCH   2   5
BRANCH   1  36
ATOM     36  O           0     135.772 130.199 147.765  0.00  0.00    -0.302 OA
BRANCH  36  37
ATOM     37  C           0     136.611 131.353 147.498  0.00  0.00     0.208 C 
BRANCH  37  38
ATOM     38  C           0     136.964 131.394 146.010  0.00  0.00     0.151 C 
ATOM     39  N           0     138.117 130.530 145.775  0.00  0.00    -0.218 N 
ATOM     40  C           0     139.346 130.927 146.272  0.00  0.00     0.672 C 
ATOM     41  H           0     138.025 129.700 145.283  0.00  0.00     0.178 HD
ATOM     42  N           0     140.270 130.070 146.603  0.00  0.00    -0.235 N 
ATOM     43  N           0     139.525 132.279 146.401  0.00  0.00    -0.183 N 
ATOM     44  H           0     140.108 129.118 146.503  0.00  0.00     0.174 HD
ATOM     45  H           0     141.123 130.382 146.945  0.00  0.00     0.174 HD
ATOM     46  C           0     138.619 133.331 145.940  0.00  0.00     0.217 C 
ATOM     47  C           0     140.628 132.986 147.079  0.00  0.00     0.150 C 
ATOM     48  C           0     137.221 132.834 145.609  0.00  0.00     0.180 C 
ATOM     49  C           0     138.605 134.381 147.062  0.00  0.00     0.209 C 
ATOM     50  N           0     139.110 133.939 144.691  0.00  0.00    -0.191 N 
ATOM     51  N           0     137.141 132.950 144.137  0.00  0.00    -0.216 N 
ATOM     52  C           0     138.133 133.809 143.735  0.00  0.00     0.670 C 
ATOM     53  H           0     136.502 132.502 143.561  0.00  0.00     0.178 HD
ATOM     54  N           0     138.147 134.426 142.586  0.00  0.00    -0.235 N 
ATOM     55  H           0     137.424 134.290 141.954  0.00  0.00     0.174 HD
ATOM     56  H           0     138.880 135.022 142.365  0.00  0.00     0.174 HD
ATOM     57  C           0     139.937 134.153 147.821  0.00  0.00     0.093 C 
ATOM     58  H           0     139.974 134.360 144.567  0.00  0.00     0.180 HD
BRANCH  49  59
ATOM     59  O           0     138.563 135.701 146.517  0.00  0.00    -0.362 OA
ATOM     60  H           0     138.904 136.297 147.198  0.00  0.00     0.213 HD
ENDBRANCH  49  59
BRANCH  49  61
ATOM     61  O           0     137.492 134.165 147.932  0.00  0.00    -0.362 OA
ATOM     62  H           0     136.719 134.024 147.368  0.00  0.00     0.213 HD
ENDBRANCH  49  61
ENDBRANCH  37  38
ENDBRANCH  36  37
ENDBRANCH   1  36
TORSDOF 18
ENDMDL
MODEL 6
REMARK VINA RESULT:      -7.6      4.216      9.161
REMARK  18 active torsions:
REMARK  status: ('A' for Active; 'I' for Inactive)
REMARK    1  A    between atoms: C_6  and  C_7 
REMARK    2  A    between atoms: C_7  and  O_8 
REMARK    3  A    between atoms: O_8  and  C_9 
REMARK       I    between atoms: C_9  and  N_10 
REMARK    4  A    between atoms: N_10  and  C_11 
REMARK    5  A    between atoms: C_11  and  C_12 
REMARK    6  A    between atoms: C_12  and  C_13 
REMARK    7  A    between atoms: C_13  and  C_14 
REMARK    8  A    between atoms: C_14  and  C_15 
REMARK    9  A    between atoms: C_15  and  C_16 
REMARK   10  A    between atoms: C_16  and  N_17 
REMARK       I    between atoms: N_17  and  C_18 
REMARK   11  A    between atoms: C_18  and  C_19 
REMARK   12  A    between atoms: C_19  and  N_20 
REMARK       I    between atoms: N_20  and  C_21 
REMARK   13  A    between atoms: C_21  and  C_22 
REMARK   14  A    between atoms: C_27  and  N_28 
REMARK   15  A    between atoms: N_28  and  C_29 
REMARK   16  A    between atoms: N_28  and  C_31 
REMARK   17  A    between atoms: C_52  and  O_53 
REMARK   18  A    between atoms: C_52  and  O_54 
ROOT
ATOM      1  C           0     135.140 130.658 148.466  0.00  0.00     0.360 C 
ATOM      2  N           0     133.996 131.370 148.402  0.00  0.00    -0.337 N 
ATOM      3  O           0     135.588 130.325 149.545  0.00  0.00    -0.239 OA
ATOM      4  H           0     133.639 131.636 147.541  0.00  0.00     0.164 HD
ENDROOT
BRANCH   2   5
ATOM      5  C           0     133.296 131.741 149.633  0.00  0.00     0.125 C 
BRANCH   5   6
ATOM      6  C           0     132.494 133.023 149.397  0.00  0.00     0.020 C 
BRANCH   6   7
ATOM      7  C           0     133.163 134.186 150.135  0.00  0.00     0.002 C 
BRANCH   7   8
ATOM      8  C           0     132.759 135.506 149.476  0.00  0.00     0.002 C 
BRANCH   8   9
ATOM      9  C           0     133.595 135.723 148.214  0.00  0.00     0.020 C 
BRANCH   9  10
ATOM     10  C           0     132.669 135.846 147.002  0.00  0.00     0.122 C 
BRANCH  10  11
ATOM     11  N           0     132.793 134.647 146.169  0.00  0.00    -0.360 N 
ATOM     12  C           0     133.478 134.700 145.010  0.00  0.00     0.235 C 
ATOM     13  O           0     133.990 135.740 144.656  0.00  0.00    -0.272 OA
ATOM     14  H           0     132.382 133.816 146.452  0.00  0.00     0.162 HD
BRANCH  12  15
ATOM     15  C           0     133.605 133.467 144.153  0.00  0.00     0.225 C 
BRANCH  15  16
ATOM     16  N           0     133.227 133.789 142.775  0.00  0.00    -0.348 N 
ATOM     17  C           0     134.154 133.757 141.796  0.00  0.00     0.258 C 
ATOM     18  O           0     135.304 133.459 142.059  0.00  0.00    -0.267 OA
ATOM     19  H           0     132.310 134.026 142.566  0.00  0.00     0.163 HD
BRANCH  17  20
ATOM     20  C           0     133.774 134.080 140.412  0.00  0.00     0.108 C 
ATOM     21  C           0     132.385 133.930 139.947  0.00  0.00     0.304 C 
ATOM     22  O           0     131.999 134.686 138.888  0.00  0.00    -0.274 OA
ATOM     23  O           0     131.611 133.166 140.494  0.00  0.00    -0.259 OA
ATOM     24  C           0     132.902 134.899 137.898  0.00  0.00     0.091 A 
ATOM     25  C           0     134.282 134.859 138.189  0.00  0.00    -0.001 A 
ATOM     26  C           0     132.480 135.175 136.609  0.00  0.00     0.067 A 
ATOM     27  C           0     134.716 134.533 139.495  0.00  0.00     0.037 C 
ATOM     28  C           0     135.215 135.136 137.176  0.00  0.00     0.016 A 
ATOM     29  C           0     134.784 135.413 135.914  0.00  0.00     0.030 A 
ATOM     30  C           0     133.419 135.430 135.617  0.00  0.00     0.032 A 
BRANCH  30  31
ATOM     31  N           0     132.997 135.702 134.323  0.00  0.00    -0.382 N 
BRANCH  31  32
ATOM     32  C           0     133.692 135.102 133.182  0.00  0.00     0.118 C 
ATOM     33  C           0     133.459 133.589 133.181  0.00  0.00     0.026 C 
ENDBRANCH  31  32
BRANCH  31  34
ATOM     34  C           0     131.853 136.591 134.098  0.00  0.00     0.118 C 
ATOM     35  C           0     131.056 136.101 132.886  0.00  0.00     0.026 C 
ENDBRANCH  31  34
ENDBRANCH  30  31
ENDBRANCH  17  20
ENDBRANCH  15  16
ENDBRANCH  12  15
ENDBRANCH  10  11
ENDBRANCH   9  10
ENDBRANCH   8   9
ENDBRANCH   7   8
ENDBRANCH   6   7
ENDBRANCH   5   6
ENDBRANCH   2   5
BRANCH   1  36
ATOM     36  O           0     135.784 130.317 147.334  0.00  0.00    -0.302 OA
BRANCH  36  37
ATOM     37  C           0     137.203 130.592 147.196  0.00  0.00     0.208 C 
BRANCH  37  38
ATOM     38  C           0     137.458 131.297 145.862  0.00  0.00     0.151 C 
ATOM     39  N           0     138.871 131.165 145.521  0.00  0.00    -0.218 N 
ATOM     40  C           0     139.796 131.857 146.283  0.00  0.00     0.672 C 
ATOM     41  H           0     139.155 130.607 144.781  0.00  0.00     0.178 HD
ATOM     42  N           0     141.019 131.434 146.444  0.00  0.00    -0.235 N 
ATOM     43  N           0     139.343 133.013 146.862  0.00  0.00    -0.183 N 
ATOM     44  H           0     141.305 130.609 146.022  0.00  0.00     0.174 HD
ATOM     45  H           0     141.643 131.947 146.981  0.00  0.00     0.174 HD
ATOM     46  C           0     138.044 133.651 146.643  0.00  0.00     0.217 C 
ATOM     47  C           0     140.019 133.846 147.874  0.00  0.00     0.150 C 
ATOM     48  C           0     137.018 132.743 145.983  0.00  0.00     0.180 C 
ATOM     49  C           0     137.582 134.127 148.030  0.00  0.00     0.209 C 
ATOM     50  N           0     138.169 134.804 145.735  0.00  0.00    -0.191 N 
ATOM     51  N           0     136.854 133.316 144.630  0.00  0.00    -0.216 N 
ATOM     52  C           0     137.334 134.602 144.664  0.00  0.00     0.670 C 
ATOM     53  H           0     136.476 132.866 143.859  0.00  0.00     0.178 HD
ATOM     54  N           0     137.034 135.519 143.787  0.00  0.00    -0.235 N 
ATOM     55  H           0     136.436 135.311 143.053  0.00  0.00     0.174 HD
ATOM     56  H           0     137.409 136.411 143.870  0.00  0.00     0.174 HD
ATOM     57  C           0     138.891 134.255 148.850  0.00  0.00     0.093 C 
ATOM     58  H           0     138.742 135.574 145.871  0.00  0.00     0.180 HD
BRANCH  49  59
ATOM     59  O           0     136.928 135.394 147.937  0.00  0.00    -0.362 OA
ATOM     60  H           0     136.918 135.771 148.827  0.00  0.00     0.213 HD
ENDBRANCH  49  59
BRANCH  49  61
ATOM     61  O           0     136.715 133.159 148.625  0.00  0.00    -0.362 OA
ATOM     62  H           0     137.036 132.289 148.349  0.00  0.00     0.213 HD
ENDBRANCH  49  61
ENDBRANCH  37  38
ENDBRANCH  36  37
ENDBRANCH   1  36
TORSDOF 18
ENDMDL
MODEL 7
REMARK VINA RESULT:      -7.5      3.179      5.011
REMARK  18 active torsions:
REMARK  status: ('A' for Active; 'I' for Inactive)
REMARK    1  A    between atoms: C_6  and  C_7 
REMARK    2  A    between atoms: C_7  and  O_8 
REMARK    3  A    between atoms: O_8  and  C_9 
REMARK       I    between atoms: C_9  and  N_10 
REMARK    4  A    between atoms: N_10  and  C_11 
REMARK    5  A    between atoms: C_11  and  C_12 
REMARK    6  A    between atoms: C_12  and  C_13 
REMARK    7  A    between atoms: C_13  and  C_14 
REMARK    8  A    between atoms: C_14  and  C_15 
REMARK    9  A    between atoms: C_15  and  C_16 
REMARK   10  A    between atoms: C_16  and  N_17 
REMARK       I    between atoms: N_17  and  C_18 
REMARK   11  A    between atoms: C_18  and  C_19 
REMARK   12  A    between atoms: C_19  and  N_20 
REMARK       I    between atoms: N_20  and  C_21 
REMARK   13  A    between atoms: C_21  and  C_22 
REMARK   14  A    between atoms: C_27  and  N_28 
REMARK   15  A    between atoms: N_28  and  C_29 
REMARK   16  A    between atoms: N_28  and  C_31 
REMARK   17  A    between atoms: C_52  and  O_53 
REMARK   18  A    between atoms: C_52  and  O_54 
ROOT
ATOM      1  C           0     135.498 131.344 144.513  0.00  0.00     0.360 C 
ATOM      2  N           0     134.273 131.378 143.951  0.00  0.00    -0.337 N 
ATOM      3  O           0     136.485 131.254 143.811  0.00  0.00    -0.239 OA
ATOM      4  H           0     133.484 131.449 144.511  0.00  0.00     0.164 HD
ENDROOT
BRANCH   2   5
ATOM      5  C           0     134.133 131.307 142.495  0.00  0.00     0.125 C 
BRANCH   5   6
ATOM      6  C           0     133.887 132.711 141.938  0.00  0.00     0.020 C 
BRANCH   6   7
ATOM      7  C           0     132.409 132.862 141.570  0.00  0.00     0.002 C 
BRANCH   7   8
ATOM      8  C           0     132.290 133.534 140.201  0.00  0.00     0.002 C 
BRANCH   8   9
ATOM      9  C           0     133.588 134.280 139.885  0.00  0.00     0.020 C 
BRANCH   9  10
ATOM     10  C           0     133.277 135.499 139.015  0.00  0.00     0.122 C 
BRANCH  10  11
ATOM     11  N           0     132.540 135.072 137.822  0.00  0.00    -0.360 N 
ATOM     12  C           0     133.121 135.148 136.609  0.00  0.00     0.235 C 
ATOM     13  O           0     134.253 135.570 136.504  0.00  0.00    -0.272 OA
ATOM     14  H           0     131.635 134.736 137.906  0.00  0.00     0.162 HD
BRANCH  12  15
ATOM     15  C           0     132.363 134.710 135.382  0.00  0.00     0.225 C 
BRANCH  15  16
ATOM     16  N           0     132.774 133.352 135.014  0.00  0.00    -0.348 N 
ATOM     17  C           0     133.391 133.130 133.837  0.00  0.00     0.258 C 
ATOM     18  O           0     133.608 134.058 133.080  0.00  0.00    -0.267 OA
ATOM     19  H           0     132.602 132.613 135.618  0.00  0.00     0.163 HD
BRANCH  17  20
ATOM     20  C           0     133.803 131.767 133.467  0.00  0.00     0.108 C 
ATOM     21  C           0     133.230 130.589 134.138  0.00  0.00     0.304 C 
ATOM     22  O           0     133.244 129.415 133.454  0.00  0.00    -0.274 OA
ATOM     23  O           0     132.753 130.662 135.255  0.00  0.00    -0.259 OA
ATOM     24  C           0     134.323 129.148 132.677  0.00  0.00     0.091 A 
ATOM     25  C           0     135.082 130.211 132.144  0.00  0.00    -0.001 A 
ATOM     26  C           0     134.675 127.842 132.386  0.00  0.00     0.067 A 
ATOM     27  C           0     134.754 131.546 132.476  0.00  0.00     0.037 C 
ATOM     28  C           0     136.165 129.935 131.293  0.00  0.00     0.016 A 
ATOM     29  C           0     136.493 128.644 131.010  0.00  0.00     0.030 A 
ATOM     30  C           0     135.759 127.589 131.555  0.00  0.00     0.032 A 
BRANCH  30  31
ATOM     31  N           0     136.114 126.277 131.266  0.00  0.00    -0.382 N 
BRANCH  31  32
ATOM     32  C           0     137.488 125.958 130.876  0.00  0.00     0.118 C 
ATOM     33  C           0     138.235 125.367 132.074  0.00  0.00     0.026 C 
ENDBRANCH  31  32
BRANCH  31  34
ATOM     34  C           0     135.111 125.212 131.353  0.00  0.00     0.118 C 
ATOM     35  C           0     135.793 123.854 131.168  0.00  0.00     0.026 C 
ENDBRANCH  31  34
ENDBRANCH  30  31
ENDBRANCH  17  20
ENDBRANCH  15  16
ENDBRANCH  12  15
ENDBRANCH  10  11
ENDBRANCH   9  10
ENDBRANCH   8   9
ENDBRANCH   7   8
ENDBRANCH   6   7
ENDBRANCH   5   6
ENDBRANCH   2   5
BRANCH   1  36
ATOM     36  O           0     135.627 131.409 145.851  0.00  0.00    -0.302 OA
BRANCH  36  37
ATOM     37  C           0     136.796 130.838 146.496  0.00  0.00     0.208 C 
BRANCH  37  38
ATOM     38  C           0     137.267 131.771 147.614  0.00  0.00     0.151 C 
ATOM     39  N           0     136.452 132.981 147.594  0.00  0.00    -0.218 N 
ATOM     40  C           0     136.608 133.859 146.535  0.00  0.00     0.672 C 
ATOM     41  H           0     135.817 133.166 148.303  0.00  0.00     0.178 HD
ATOM     42  N           0     135.639 134.628 146.122  0.00  0.00    -0.235 N 
ATOM     43  N           0     137.844 133.863 145.945  0.00  0.00    -0.183 N 
ATOM     44  H           0     134.775 134.596 146.560  0.00  0.00     0.174 HD
ATOM     45  H           0     135.784 135.235 145.379  0.00  0.00     0.174 HD
ATOM     46  C           0     139.037 133.150 146.405  0.00  0.00     0.217 C 
ATOM     47  C           0     138.248 134.528 144.692  0.00  0.00     0.150 C 
ATOM     48  C           0     138.744 132.057 147.420  0.00  0.00     0.180 C 
ATOM     49  C           0     139.695 132.591 145.133  0.00  0.00     0.209 C 
ATOM     50  N           0     139.966 134.064 147.089  0.00  0.00    -0.191 N 
ATOM     51  N           0     139.306 132.585 148.682  0.00  0.00    -0.216 N 
ATOM     52  C           0     140.189 133.585 148.356  0.00  0.00     0.670 C 
ATOM     53  H           0     139.091 132.279 149.577  0.00  0.00     0.178 HD
ATOM     54  N           0     141.124 134.024 149.152  0.00  0.00    -0.235 N 
ATOM     55  H           0     141.227 133.641 150.036  0.00  0.00     0.174 HD
ATOM     56  H           0     141.716 134.735 148.858  0.00  0.00     0.174 HD
ATOM     57  C           0     139.172 133.503 143.994  0.00  0.00     0.093 C 
ATOM     58  H           0     140.356 134.867 146.710  0.00  0.00     0.180 HD
BRANCH  49  59
ATOM     59  O           0     141.119 132.676 145.223  0.00  0.00    -0.362 OA
ATOM     60  H           0     141.361 132.389 146.114  0.00  0.00     0.213 HD
ENDBRANCH  49  59
BRANCH  49  61
ATOM     61  O           0     139.288 131.239 144.915  0.00  0.00    -0.362 OA
ATOM     62  H           0     138.321 131.234 144.917  0.00  0.00     0.213 HD
ENDBRANCH  49  61
ENDBRANCH  37  38
ENDBRANCH  36  37
ENDBRANCH   1  36
TORSDOF 18
ENDMDL
MODEL 8
REMARK VINA RESULT:      -7.4      2.684      4.666
REMARK  18 active torsions:
REMARK  status: ('A' for Active; 'I' for Inactive)
REMARK    1  A    between atoms: C_6  and  C_7 
REMARK    2  A    between atoms: C_7  and  O_8 
REMARK    3  A    between atoms: O_8  and  C_9 
REMARK       I    between atoms: C_9  and  N_10 
REMARK    4  A    between atoms: N_10  and  C_11 
REMARK    5  A    between atoms: C_11  and  C_12 
REMARK    6  A    between atoms: C_12  and  C_13 
REMARK    7  A    between atoms: C_13  and  C_14 
REMARK    8  A    between atoms: C_14  and  C_15 
REMARK    9  A    between atoms: C_15  and  C_16 
REMARK   10  A    between atoms: C_16  and  N_17 
REMARK       I    between atoms: N_17  and  C_18 
REMARK   11  A    between atoms: C_18  and  C_19 
REMARK   12  A    between atoms: C_19  and  N_20 
REMARK       I    between atoms: N_20  and  C_21 
REMARK   13  A    between atoms: C_21  and  C_22 
REMARK   14  A    between atoms: C_27  and  N_28 
REMARK   15  A    between atoms: N_28  and  C_29 
REMARK   16  A    between atoms: N_28  and  C_31 
REMARK   17  A    between atoms: C_52  and  O_53 
REMARK   18  A    between atoms: C_52  and  O_54 
ROOT
ATOM      1  C           0     135.899 131.251 143.889  0.00  0.00     0.360 C 
ATOM      2  N           0     134.562 131.366 143.759  0.00  0.00    -0.337 N 
ATOM      3  O           0     136.601 131.179 142.900  0.00  0.00    -0.239 OA
ATOM      4  H           0     134.001 131.424 144.548  0.00  0.00     0.164 HD
ENDROOT
BRANCH   2   5
ATOM      5  C           0     133.956 131.405 142.426  0.00  0.00     0.125 C 
BRANCH   5   6
ATOM      6  C           0     133.368 132.795 142.173  0.00  0.00     0.020 C 
BRANCH   6   7
ATOM      7  C           0     132.089 132.664 141.343  0.00  0.00     0.002 C 
BRANCH   7   8
ATOM      8  C           0     132.187 133.566 140.112  0.00  0.00     0.002 C 
BRANCH   8   9
ATOM      9  C           0     133.575 134.206 140.057  0.00  0.00     0.020 C 
BRANCH   9  10
ATOM     10  C           0     133.463 135.624 139.492  0.00  0.00     0.122 C 
BRANCH  10  11
ATOM     11  N           0     132.979 135.561 138.109  0.00  0.00    -0.360 N 
ATOM     12  C           0     133.856 135.615 137.087  0.00  0.00     0.235 C 
ATOM     13  O           0     135.043 135.716 137.310  0.00  0.00    -0.272 OA
ATOM     14  H           0     132.030 135.481 137.931  0.00  0.00     0.162 HD
BRANCH  12  15
ATOM     15  C           0     133.359 135.550 135.666  0.00  0.00     0.225 C 
BRANCH  15  16
ATOM     16  N           0     132.897 134.191 135.371  0.00  0.00    -0.348 N 
ATOM     17  C           0     133.142 133.643 134.164  0.00  0.00     0.258 C 
ATOM     18  O           0     133.747 134.277 133.320  0.00  0.00    -0.267 OA
ATOM     19  H           0     132.415 133.686 136.044  0.00  0.00     0.163 HD
BRANCH  17  20
ATOM     20  C           0     132.678 132.278 133.869  0.00  0.00     0.108 C 
ATOM     21  C           0     131.360 131.805 134.325  0.00  0.00     0.304 C 
ATOM     22  O           0     130.789 130.789 133.628  0.00  0.00    -0.274 OA
ATOM     23  O           0     130.799 132.309 135.280  0.00  0.00    -0.259 OA
ATOM     24  C           0     131.601 129.813 133.151  0.00  0.00     0.091 A 
ATOM     25  C           0     132.954 130.101 132.873  0.00  0.00    -0.001 A 
ATOM     26  C           0     131.110 128.540 132.917  0.00  0.00     0.067 A 
ATOM     27  C           0     133.471 131.387 133.154  0.00  0.00     0.037 C 
ATOM     28  C           0     133.780 129.105 132.326  0.00  0.00     0.016 A 
ATOM     29  C           0     133.279 127.860 132.094  0.00  0.00     0.030 A 
ATOM     30  C           0     131.947 127.564 132.391  0.00  0.00     0.032 A 
BRANCH  30  31
ATOM     31  N           0     131.454 126.286 132.160  0.00  0.00    -0.382 N 
BRANCH  31  32
ATOM     32  C           0     132.189 125.117 132.648  0.00  0.00     0.118 C 
ATOM     33  C           0     131.755 124.803 134.081  0.00  0.00     0.026 C 
ENDBRANCH  31  32
BRANCH  31  34
ATOM     34  C           0     130.197 126.108 131.428  0.00  0.00     0.118 C 
ATOM     35  C           0     129.062 126.801 132.187  0.00  0.00     0.026 C 
ENDBRANCH  31  34
ENDBRANCH  30  31
ENDBRANCH  17  20
ENDBRANCH  15  16
ENDBRANCH  12  15
ENDBRANCH  10  11
ENDBRANCH   9  10
ENDBRANCH   8   9
ENDBRANCH   7   8
ENDBRANCH   6   7
ENDBRANCH   5   6
ENDBRANCH   2   5
BRANCH   1  36
ATOM     36  O           0     136.456 131.216 145.114  0.00  0.00    -0.302 OA
BRANCH  36  37
ATOM     37  C           0     137.899 131.286 145.258  0.00  0.00     0.208 C 
BRANCH  37  38
ATOM     38  C           0     138.255 132.338 146.309  0.00  0.00     0.151 C 
ATOM     39  N           0     137.052 132.684 147.058  0.00  0.00    -0.218 N 
ATOM     40  C           0     136.057 133.394 146.409  0.00  0.00     0.672 C 
ATOM     41  H           0     136.950 132.423 147.987  0.00  0.00     0.178 HD
ATOM     42  N           0     134.801 133.294 146.744  0.00  0.00    -0.235 N 
ATOM     43  N           0     136.476 134.204 145.387  0.00  0.00    -0.183 N 
ATOM     44  H           0     134.538 132.707 147.470  0.00  0.00     0.174 HD
ATOM     45  H           0     134.129 133.810 146.270  0.00  0.00     0.174 HD
ATOM     46  C           0     137.861 134.498 145.014  0.00  0.00     0.217 C 
ATOM     47  C           0     135.648 134.915 144.396  0.00  0.00     0.150 C 
ATOM     48  C           0     138.874 133.535 145.612  0.00  0.00     0.180 C 
ATOM     49  C           0     137.884 134.475 143.477  0.00  0.00     0.209 C 
ATOM     50  N           0     138.267 135.826 145.501  0.00  0.00    -0.191 N 
ATOM     51  N           0     139.600 134.355 146.606  0.00  0.00    -0.216 N 
ATOM     52  C           0     139.374 135.674 146.299  0.00  0.00     0.670 C 
ATOM     53  H           0     140.138 134.022 147.341  0.00  0.00     0.178 HD
ATOM     54  N           0     140.120 136.660 146.713  0.00  0.00    -0.235 N 
ATOM     55  H           0     140.889 136.483 147.275  0.00  0.00     0.174 HD
ATOM     56  H           0     139.904 137.571 146.457  0.00  0.00     0.174 HD
ATOM     57  C           0     136.416 134.750 143.064  0.00  0.00     0.093 C 
ATOM     58  H           0     137.829 136.666 145.293  0.00  0.00     0.180 HD
BRANCH  49  59
ATOM     59  O           0     138.743 135.498 142.971  0.00  0.00    -0.362 OA
ATOM     60  H           0     138.348 136.345 143.220  0.00  0.00     0.213 HD
ENDBRANCH  49  59
BRANCH  49  61
ATOM     61  O           0     138.303 133.192 143.005  0.00  0.00    -0.362 OA
ATOM     62  H           0     138.737 132.749 143.747  0.00  0.00     0.213 HD
ENDBRANCH  49  61
ENDBRANCH  37  38
ENDBRANCH  36  37
ENDBRANCH   1  36
TORSDOF 18
ENDMDL
MODEL 9
REMARK VINA RESULT:      -7.4      7.728     12.899
REMARK  18 active torsions:
REMARK  status: ('A' for Active; 'I' for Inactive)
REMARK    1  A    between atoms: C_6  and  C_7 
REMARK    2  A    between atoms: C_7  and  O_8 
REMARK    3  A    between atoms: O_8  and  C_9 
REMARK       I    between atoms: C_9  and  N_10 
REMARK    4  A    between atoms: N_10  and  C_11 
REMARK    5  A    between atoms: C_11  and  C_12 
REMARK    6  A    between atoms: C_12  and  C_13 
REMARK    7  A    between atoms: C_13  and  C_14 
REMARK    8  A    between atoms: C_14  and  C_15 
REMARK    9  A    between atoms: C_15  and  C_16 
REMARK   10  A    between atoms: C_16  and  N_17 
REMARK       I    between atoms: N_17  and  C_18 
REMARK   11  A    between atoms: C_18  and  C_19 
REMARK   12  A    between atoms: C_19  and  N_20 
REMARK       I    between atoms: N_20  and  C_21 
REMARK   13  A    between atoms: C_21  and  C_22 
REMARK   14  A    between atoms: C_27  and  N_28 
REMARK   15  A    between atoms: N_28  and  C_29 
REMARK   16  A    between atoms: N_28  and  C_31 
REMARK   17  A    between atoms: C_52  and  O_53 
REMARK   18  A    between atoms: C_52  and  O_54 
ROOT
ATOM      1  C           0     134.977 134.140 148.303  0.00  0.00     0.360 C 
ATOM      2  N           0     134.358 132.944 148.352  0.00  0.00    -0.337 N 
ATOM      3  O           0     134.434 135.124 148.765  0.00  0.00    -0.239 OA
ATOM      4  H           0     134.792 132.158 147.983  0.00  0.00     0.164 HD
ENDROOT
BRANCH   2   5
ATOM      5  C           0     133.032 132.830 148.962  0.00  0.00     0.125 C 
BRANCH   5   6
ATOM      6  C           0     132.882 131.448 149.602  0.00  0.00     0.020 C 
BRANCH   6   7
ATOM      7  C           0     134.267 130.885 149.932  0.00  0.00     0.002 C 
BRANCH   7   8
ATOM      8  C           0     134.363 129.443 149.432  0.00  0.00     0.002 C 
BRANCH   8   9
ATOM      9  C           0     135.210 128.621 150.405  0.00  0.00     0.020 C 
BRANCH   9  10
ATOM     10  C           0     136.211 127.771 149.620  0.00  0.00     0.122 C 
BRANCH  10  11
ATOM     11  N           0     137.074 128.646 148.822  0.00  0.00    -0.360 N 
ATOM     12  C           0     138.410 128.615 148.998  0.00  0.00     0.235 C 
ATOM     13  O           0     138.897 127.864 149.816  0.00  0.00    -0.272 OA
ATOM     14  H           0     136.685 129.247 148.169  0.00  0.00     0.162 HD
BRANCH  12  15
ATOM     15  C           0     139.299 129.514 148.178  0.00  0.00     0.225 C 
BRANCH  15  16
ATOM     16  N           0     138.478 130.297 147.250  0.00  0.00    -0.348 N 
ATOM     17  C           0     139.061 130.974 146.240  0.00  0.00     0.258 C 
ATOM     18  O           0     140.269 130.933 146.099  0.00  0.00    -0.267 OA
ATOM     19  H           0     137.515 130.329 147.362  0.00  0.00     0.163 HD
BRANCH  17  20
ATOM     20  C           0     138.237 131.760 145.309  0.00  0.00     0.108 C 
ATOM     21  C           0     138.844 132.742 144.395  0.00  0.00     0.304 C 
ATOM     22  O           0     138.159 133.045 143.263  0.00  0.00    -0.274 OA
ATOM     23  O           0     139.921 133.255 144.638  0.00  0.00    -0.259 OA
ATOM     24  C           0     136.806 133.112 143.340  0.00  0.00     0.091 A 
ATOM     25  C           0     136.123 132.367 144.324  0.00  0.00    -0.001 A 
ATOM     26  C           0     136.089 133.891 142.449  0.00  0.00     0.067 A 
ATOM     27  C           0     136.855 131.607 145.265  0.00  0.00     0.037 C 
ATOM     28  C           0     134.719 132.393 144.367  0.00  0.00     0.016 A 
ATOM     29  C           0     134.027 133.158 143.478  0.00  0.00     0.030 A 
ATOM     30  C           0     134.701 133.916 142.518  0.00  0.00     0.032 A 
BRANCH  30  31
ATOM     31  N           0     133.982 134.701 141.626  0.00  0.00    -0.382 N 
BRANCH  31  32
ATOM     32  C           0     133.976 136.158 141.770  0.00  0.00     0.118 C 
ATOM     33  C           0     134.029 136.525 143.255  0.00  0.00     0.026 C 
ENDBRANCH  31  32
BRANCH  31  34
ATOM     34  C           0     133.228 134.069 140.539  0.00  0.00     0.118 C 
ATOM     35  C           0     133.217 134.996 139.321  0.00  0.00     0.026 C 
ENDBRANCH  31  34
ENDBRANCH  30  31
ENDBRANCH  17  20
ENDBRANCH  15  16
ENDBRANCH  12  15
ENDBRANCH  10  11
ENDBRANCH   9  10
ENDBRANCH   8   9
ENDBRANCH   7   8
ENDBRANCH   6   7
ENDBRANCH   5   6
ENDBRANCH   2   5
BRANCH   1  36
ATOM     36  O           0     136.197 134.245 147.742  0.00  0.00    -0.302 OA
BRANCH  36  37
ATOM     37  C           0     137.380 133.904 148.510  0.00  0.00     0.208 C 
BRANCH  37  38
ATOM     38  C           0     138.631 134.265 147.706  0.00  0.00     0.151 C 
ATOM     39  N           0     139.804 133.742 148.399  0.00  0.00    -0.218 N 
ATOM     40  C           0     140.173 134.328 149.598  0.00  0.00     0.672 C 
ATOM     41  H           0     140.313 133.003 148.031  0.00  0.00     0.178 HD
ATOM     42  N           0     140.801 133.668 150.529  0.00  0.00    -0.235 N 
ATOM     43  N           0     139.829 135.646 149.744  0.00  0.00    -0.183 N 
ATOM     44  H           0     141.026 132.734 150.394  0.00  0.00     0.174 HD
ATOM     45  H           0     141.049 134.111 151.356  0.00  0.00     0.174 HD
ATOM     46  C           0     139.249 136.519 148.723  0.00  0.00     0.217 C 
ATOM     47  C           0     139.903 136.472 150.964  0.00  0.00     0.150 C 
ATOM     48  C           0     138.679 135.770 147.528  0.00  0.00     0.180 C 
ATOM     49  C           0     138.174 137.343 149.450  0.00  0.00     0.209 C 
ATOM     50  N           0     140.269 137.417 148.155  0.00  0.00    -0.191 N 
ATOM     51  N           0     139.608 136.100 146.426  0.00  0.00    -0.216 N 
ATOM     52  C           0     140.311 137.219 146.798  0.00  0.00     0.670 C 
ATOM     53  H           0     139.703 135.614 145.592  0.00  0.00     0.178 HD
ATOM     54  N           0     140.941 137.999 145.964  0.00  0.00    -0.235 N 
ATOM     55  H           0     140.931 137.802 145.014  0.00  0.00     0.174 HD
ATOM     56  H           0     141.419 138.776 146.293  0.00  0.00     0.174 HD
ATOM     57  C           0     138.604 137.312 150.938  0.00  0.00     0.093 C 
ATOM     58  H           0     140.816 138.042 148.655  0.00  0.00     0.180 HD
BRANCH  49  59
ATOM     59  O           0     138.156 138.687 148.966  0.00  0.00    -0.362 OA
ATOM     60  H           0     137.229 138.920 148.818  0.00  0.00     0.213 HD
ENDBRANCH  49  59
BRANCH  49  61
ATOM     61  O           0     136.890 136.737 149.290  0.00  0.00    -0.362 OA
ATOM     62  H           0     137.023 135.780 149.347  0.00  0.00     0.213 HD
ENDBRANCH  49  61
ENDBRANCH  37  38
ENDBRANCH  36  37
ENDBRANCH   1  36
TORSDOF 18
ENDMDL
