# created with PyMOL 2.3.4
@<TRIPOS>MOLECULE
ligand_out_0001
62 66 1                 
SMALL
USER_CHARGES
@<TRIPOS>ATOM
1	   N	133.400	135.271	139.257	N.pl3	1	UNK0	-0.337	
2	   N	130.719	136.758	133.010	N.pl3	1	UNK0	-0.360	
3	   N	130.023	135.083	130.951	N.pl3	1	UNK0	-0.348	
4	   N	132.885	127.224	132.502	N.3	1	UNK0	-0.382	
5	   N	135.505	135.550	143.331	N.3	1	UNK0	-0.218	
6	   N	137.774	135.033	142.980	N.3	1	UNK0	-0.235	
7	   N	136.524	133.862	144.575	N.3	1	UNK0	-0.183	
8	   N	135.581	134.179	146.780	N.3	1	UNK0	-0.191	
9	   N	133.851	135.378	145.924	N.3	1	UNK0	-0.216	
10	   N	134.342	135.580	148.229	N.3	1	UNK0	-0.235	
11	   C	133.798	134.351	140.158	C.2	1	UNK0	0.360	
12	   C	133.990	135.287	137.917	C.3	1	UNK0	0.125	
13	   C	132.903	135.000	136.878	C.3	1	UNK0	0.020	
14	   C	133.551	134.787	135.507	C.3	1	UNK0	0.002	
15	   C	132.744	135.531	134.442	C.3	1	UNK0	0.002	
16	   C	132.009	136.708	135.087	C.3	1	UNK0	0.020	
17	   C	131.409	137.595	133.995	C.3	1	UNK0	0.122	
18	   C	130.217	137.313	131.889	C.2	1	UNK0	0.235	
19	   C	129.508	136.452	130.875	C.3	1	UNK0	0.225	
20	   C	129.401	134.170	131.723	C.2	1	UNK0	0.258	
21	   C	129.919	132.795	131.799	C.3	1	UNK0	0.108	
22	   C	129.137	131.656	131.290	C.2	1	UNK0	0.304	
23	   C	130.906	130.195	131.665	C.2	1	UNK0	0.091	
24	   C	131.618	131.185	132.374	C.3	1	UNK0	-0.001	
25	   C	131.329	128.878	131.716	C.3	1	UNK0	0.067	
26	   C	131.162	132.524	132.361	C.3	1	UNK0	0.037	
27	   C	132.771	130.833	133.095	C.3	1	UNK0	0.016	
28	   C	133.179	129.534	133.129	C.3	1	UNK0	0.030	
29	   C	132.462	128.547	132.448	C.3	1	UNK0	0.032	
30	   C	134.299	126.914	132.720	C.3	1	UNK0	0.118	
31	   C	134.985	126.685	131.372	C.3	1	UNK0	0.026	
32	   C	131.913	126.139	132.343	C.3	1	UNK0	0.118	
33	   C	132.278	124.986	133.280	C.3	1	UNK0	0.026	
34	   C	134.016	133.812	142.511	C.2	1	UNK0	0.208	
35	   C	134.211	134.914	143.554	C.3	1	UNK0	0.151	
36	   C	136.650	134.823	143.606	C.3	1	UNK0	0.672	
37	   C	135.361	133.629	145.432	C.3	1	UNK0	0.217	
38	   C	137.491	132.810	144.939	C.3	1	UNK0	0.150	
39	   C	134.090	134.303	144.937	C.3	1	UNK0	0.180	
40	   C	135.208	132.102	145.509	C.3	1	UNK0	0.209	
41	   C	134.577	135.076	147.049	C.3	1	UNK0	0.670	
42	   C	136.620	131.555	145.181	C.3	1	UNK0	0.093	
43	   O	134.647	133.535	139.857	O.co2	1	UNK0	-0.239	
44	   O	130.336	138.504	131.696	O.2	1	UNK0	-0.272	
45	   O	128.409	134.483	132.355	O.2	1	UNK0	-0.267	
46	   O	129.824	130.543	130.924	O.2	1	UNK0	-0.274	
47	   O	127.925	131.710	131.191	O.co2	1	UNK0	-0.259	
48	   O	133.256	134.336	141.390	O.2	1	UNK0	-0.302	
49	   O	134.813	131.700	146.822	O.2	1	UNK0	-0.362	
50	   O	134.260	131.647	144.541	O.2	1	UNK0	-0.362	
51	   H	132.722	135.923	139.497	 H	1	UNK0	0.164	
52	   H	130.623	135.806	133.165	 H	1	UNK0	0.162	
53	   H	130.813	134.833	130.447	 H	1	UNK0	0.163	
54	   H	135.562	136.459	142.998	 H	1	UNK0	0.178	
55	   H	137.826	135.719	142.296	 H	1	UNK0	0.174	
56	   H	138.559	134.508	143.201	 H	1	UNK0	0.174	
57	   H	133.283	136.154	145.799	 H	1	UNK0	0.178	
58	   H	133.615	136.210	148.351	 H	1	UNK0	0.174	
59	   H	134.895	135.323	148.984	 H	1	UNK0	0.174	
60	   H	136.309	133.947	147.376	 H	1	UNK0	0.180	
61	   H	134.068	132.262	147.075	 H	1	UNK0	0.213	
62	   H	133.538	132.290	144.533	 H	1	UNK0	0.213	
@<TRIPOS>BOND
1 1 12 1
2 1 51 1
3 2 18 1
4 2 52 1
5 3 20 1
6 3 53 1
7 4 30 1
8 4 32 1
9 5 36 1
10 5 54 1
11 6 55 1
12 6 56 1
13 7 37 1
14 7 38 1
15 8 41 1
16 8 60 1
17 9 41 1
18 9 57 1
19 10 58 1
20 10 59 1
21 1 11 1
22 11 43 2
23 11 48 2
24 12 13 1
25 13 14 1
26 14 15 1
27 15 16 1
28 16 17 1
29 2 17 1
30 18 19 1
31 18 44 2
32 3 19 1
33 20 21 1
34 20 45 2
35 21 22 1
36 21 26 1
37 22 46 2
38 22 47 2
39 23 24 1
40 23 25 1
41 24 26 1
42 24 27 1
43 25 29 1
44 27 28 1
45 28 29 1
46 4 29 1
47 30 31 1
48 32 33 1
49 34 35 1
50 5 35 1
51 35 39 1
52 6 36 1
53 7 36 1
54 8 37 1
55 37 39 1
56 37 40 1
57 38 42 1
58 9 39 1
59 40 42 1
60 40 49 2
61 40 50 2
62 10 41 1
63 23 46 2
64 34 48 2
65 49 61 1
66 50 62 1
@<TRIPOS>SUBSTRUCTURE
1	UNK0	1	GROUP	1 ****	UNK
