# created with PyMOL 2.3.4
@<TRIPOS>MOLECULE
ligand_out_0001
37 39 1                 
SMALL
USER_CHARGES
@<TRIPOS>ATOM
1	   N	138.862	130.382	146.009	N.3	1	UNK0	-0.235	
2	   N	136.573	130.644	145.533	N.3	1	UNK0	-0.218	
3	   N	135.227	132.284	143.297	N.3	1	UNK0	-0.216	
4	   N	135.846	132.938	141.110	N.3	1	UNK0	-0.235	
5	   N	137.258	133.251	142.982	N.3	1	UNK0	-0.191	
6	   N	138.064	132.381	145.090	N.3	1	UNK0	-0.180	
7	   N	133.350	131.671	148.902	N.pl3	1	UNK0	-0.346	
8	   C	137.877	131.108	145.559	C.3	1	UNK0	0.672	
9	   C	135.490	131.618	145.632	C.3	1	UNK0	0.151	
10	   C	135.634	132.755	144.639	C.3	1	UNK0	0.180	
11	   C	136.096	132.831	142.386	C.3	1	UNK0	0.670	
12	   C	137.064	133.230	144.441	C.3	1	UNK0	0.220	
13	   C	139.281	133.209	145.177	C.3	1	UNK0	0.183	
14	   C	138.757	134.626	145.511	C.2	1	UNK0	0.230	
15	   C	137.287	134.638	145.019	C.3	1	UNK0	0.238	
16	   C	135.477	132.200	147.048	C.2	1	UNK0	0.208	
17	   C	134.259	130.740	148.550	C.2	1	UNK0	0.358	
18	   O	135.436	131.117	148.014	O.2	1	UNK0	-0.302	
19	   O	134.017	129.561	148.716	O.co2	1	UNK0	-0.239	
20	   O	137.110	135.632	144.007	O.2	1	UNK0	-0.360	
21	   O	136.398	134.873	146.112	O.2	1	UNK0	-0.360	
22	   O	138.815	134.858	146.919	O.2	1	UNK0	-0.244	
23	   O	140.877	135.829	147.619	O.3	1	UNK0	-0.572	
24	   O	139.610	136.815	145.812	O.3	1	UNK0	-0.572	
25	   O	138.780	136.940	148.080	O.3	1	UNK0	-0.572	
26	   S	139.556	136.174	147.118	S.3	1	UNK0	0.252	
27	   H	138.693	129.485	146.338	 H	1	UNK0	0.174	
28	   H	139.764	130.737	146.010	 H	1	UNK0	0.174	
29	   H	135.003	132.619	140.753	 H	1	UNK0	0.174	
30	   H	136.505	133.336	140.519	 H	1	UNK0	0.174	
31	   H	136.383	129.696	145.449	 H	1	UNK0	0.178	
32	   H	134.483	131.694	143.098	 H	1	UNK0	0.178	
33	   H	138.068	133.520	142.521	 H	1	UNK0	0.180	
34	   H	133.544	132.612	148.770	 H	1	UNK0	0.161	
35	   H	132.503	131.400	149.288	 H	1	UNK0	0.161	
36	   H	137.950	136.104	143.928	 H	1	UNK0	0.213	
37	   H	136.097	135.789	146.036	 H	1	UNK0	0.213	
@<TRIPOS>BOND
1 1 8 1
2 1 27 1
3 1 28 1
4 2 9 1
5 2 31 1
6 3 11 1
7 3 32 1
8 4 29 1
9 4 30 1
10 5 33 1
11 6 13 1
12 7 34 1
13 7 35 1
14 2 8 1
15 6 8 1
16 9 10 1
17 9 16 1
18 3 10 1
19 10 12 1
20 4 11 1
21 5 11 1
22 5 12 1
23 6 12 1
24 12 15 1
25 13 14 1
26 14 15 1
27 14 22 2
28 15 20 2
29 15 21 2
30 16 18 2
31 7 17 1
32 17 19 2
33 17 18 2
34 20 36 1
35 21 37 1
36 22 26 1
37 23 26 1
38 24 26 1
39 25 26 1
@<TRIPOS>SUBSTRUCTURE
1	UNK0	1	GROUP	1 ****	UNK
