# created with PyMOL 2.3.4
@<TRIPOS>MOLECULE
ligand_out_0001
38 40 1                 
SMALL
USER_CHARGES
@<TRIPOS>ATOM
1	   N	134.167	131.967	149.255	N.3	1	UNK0	-0.235	
2	   N	135.240	129.897	148.954	N.3	1	UNK0	-0.218	
3	   N	137.989	129.270	147.699	N.3	1	UNK0	-0.216	
4	   N	140.040	130.436	147.532	N.3	1	UNK0	-0.235	
5	   N	137.966	131.418	146.959	N.3	1	UNK0	-0.191	
6	   N	135.600	131.631	147.433	N.3	1	UNK0	-0.176	
7	   N	132.666	126.142	147.009	N.pl3	1	UNK0	-0.346	
8	   C	134.971	131.199	148.575	C.3	1	UNK0	0.672	
9	   C	135.581	128.928	147.916	C.3	1	UNK0	0.151	
10	   C	136.690	129.418	147.006	C.3	1	UNK0	0.180	
11	   C	138.744	130.378	147.404	C.3	1	UNK0	0.670	
12	   C	136.619	130.900	146.679	C.3	1	UNK0	0.220	
13	   C	135.347	132.878	146.696	C.3	1	UNK0	0.137	
14	   C	136.206	134.008	147.268	C.3	1	UNK0	0.036	
15	   C	135.736	132.611	145.226	C.2	1	UNK0	0.234	
16	   C	136.254	131.148	145.201	C.3	1	UNK0	0.239	
17	   C	134.336	128.650	147.071	C.2	1	UNK0	0.208	
18	   C	132.317	127.366	147.452	C.2	1	UNK0	0.358	
19	   O	133.257	128.201	147.933	O.2	1	UNK0	-0.302	
20	   O	131.153	127.714	147.418	O.co2	1	UNK0	-0.239	
21	   O	137.403	131.031	144.360	O.2	1	UNK0	-0.360	
22	   O	135.223	130.252	144.781	O.2	1	UNK0	-0.360	
23	   O	134.595	132.754	144.378	O.2	1	UNK0	-0.244	
24	   O	136.149	134.316	143.470	O.3	1	UNK0	-0.572	
25	   O	135.546	132.328	142.234	O.3	1	UNK0	-0.572	
26	   O	133.933	134.104	142.529	O.3	1	UNK0	-0.572	
27	   S	135.079	133.406	143.092	S.3	1	UNK0	0.252	
28	   H	133.735	131.629	150.056	 H	1	UNK0	0.174	
29	   H	134.003	132.877	148.964	 H	1	UNK0	0.174	
30	   H	140.530	129.664	147.854	 H	1	UNK0	0.174	
31	   H	140.514	131.252	147.306	 H	1	UNK0	0.174	
32	   H	135.204	129.634	149.887	 H	1	UNK0	0.178	
33	   H	138.257	128.525	148.259	 H	1	UNK0	0.178	
34	   H	138.256	132.337	146.846	 H	1	UNK0	0.180	
35	   H	133.595	125.862	147.036	 H	1	UNK0	0.161	
36	   H	131.989	125.539	146.663	 H	1	UNK0	0.161	
37	   H	137.133	131.315	143.476	 H	1	UNK0	0.213	
38	   H	134.514	130.316	145.435	 H	1	UNK0	0.213	
@<TRIPOS>BOND
1 1 8 1
2 1 28 1
3 1 29 1
4 2 9 1
5 2 32 1
6 3 11 1
7 3 33 1
8 4 30 1
9 4 31 1
10 5 34 1
11 6 13 1
12 7 35 1
13 7 36 1
14 2 8 1
15 6 8 1
16 9 10 1
17 9 17 1
18 3 10 1
19 10 12 1
20 4 11 1
21 5 11 1
22 5 12 1
23 6 12 1
24 12 16 1
25 13 14 1
26 13 15 1
27 15 16 1
28 15 23 2
29 16 21 2
30 16 22 2
31 17 19 2
32 7 18 1
33 18 20 2
34 18 19 2
35 21 37 1
36 22 38 1
37 23 27 1
38 24 27 1
39 25 27 1
40 26 27 1
@<TRIPOS>SUBSTRUCTURE
1	UNK0	1	GROUP	1 ****	UNK
