# created with PyMOL 2.3.4
@<TRIPOS>MOLECULE
ligand_out_0001
65 70 1                 
SMALL
USER_CHARGES
@<TRIPOS>ATOM
1	   N	133.839	135.330	140.959	N.pl3	1	UNK0	-0.335	
2	   N	135.865	132.224	143.624	N.3	1	UNK0	-0.218	
3	   N	134.479	130.539	144.502	N.3	1	UNK0	-0.235	
4	   N	135.896	131.760	145.908	N.3	1	UNK0	-0.183	
5	   N	138.245	131.940	146.458	N.3	1	UNK0	-0.191	
6	   N	138.647	133.146	144.575	N.3	1	UNK0	-0.216	
7	   N	140.466	132.095	145.662	N.3	1	UNK0	-0.235	
8	   N	132.624	135.488	137.615	N.pl3	1	UNK0	-0.359	
9	   N	131.002	135.074	133.091	N.pl3	1	UNK0	-0.288	
10	   N	133.561	127.788	133.159	N.pl3	1	UNK0	-0.361	
11	   C	133.646	134.997	138.543	C.3	1	UNK0	0.142	
12	   C	133.009	134.733	139.909	C.3	1	UNK0	0.144	
13	   C	133.995	134.695	142.137	C.2	1	UNK0	0.360	
14	   C	135.139	134.457	144.261	C.2	1	UNK0	0.208	
15	   C	136.339	133.577	143.906	C.3	1	UNK0	0.151	
16	   C	135.378	131.467	144.675	C.3	1	UNK0	0.672	
17	   C	136.998	132.679	146.200	C.3	1	UNK0	0.217	
18	   C	135.437	131.275	147.222	C.3	1	UNK0	0.150	
19	   C	137.331	133.621	145.053	C.3	1	UNK0	0.180	
20	   C	136.570	133.442	147.464	C.3	1	UNK0	0.209	
21	   C	139.197	132.377	145.571	C.3	1	UNK0	0.670	
22	   C	135.532	132.513	148.143	C.3	1	UNK0	0.093	
23	   C	132.741	135.243	136.295	C.2	1	UNK0	0.219	
24	   C	131.690	135.748	135.340	C.3	1	UNK0	0.123	
25	   C	132.147	135.499	133.900	C.3	1	UNK0	0.144	
26	   C	130.368	133.911	133.286	C.2	1	UNK0	0.231	
27	   C	129.238	133.787	132.288	C.3	1	UNK0	0.087	
28	   C	129.335	135.089	131.467	C.3	1	UNK0	0.117	
29	   C	130.507	135.815	132.092	C.2	1	UNK0	0.227	
30	   C	129.451	132.567	131.389	C.3	1	UNK0	0.014	
31	   C	128.776	131.346	132.017	C.3	1	UNK0	0.001	
32	   C	129.755	130.170	132.026	C.3	1	UNK0	0.000	
33	   C	129.059	128.924	131.475	C.3	1	UNK0	0.000	
34	   C	129.215	127.771	132.468	C.3	1	UNK0	0.000	
35	   C	130.202	126.744	131.908	C.3	1	UNK0	0.009	
36	   C	131.401	126.623	132.851	C.3	1	UNK0	0.103	
37	   C	132.522	127.497	132.352	C.2	1	UNK0	0.217	
38	   C	134.651	128.638	132.673	C.3	1	UNK0	0.128	
39	   C	134.783	129.865	133.577	C.3	1	UNK0	0.012	
40	   C	135.567	131.002	132.849	C.3	1	UNK0	0.014	
41	   C	134.801	131.155	131.491	C.3	1	UNK0	-0.025	
42	   C	135.007	132.262	133.608	C.3	1	UNK0	0.017	
43	   C	133.624	131.695	131.742	C.3	1	UNK0	-0.026	
44	   C	133.511	131.928	133.254	C.3	1	UNK0	0.009	
45	   C	133.394	130.491	133.853	C.3	1	UNK0	0.015	
46	   O	133.449	133.626	142.328	O.co2	1	UNK0	-0.239	
47	   O	134.757	135.243	143.102	O.2	1	UNK0	-0.302	
48	   O	137.690	133.654	148.327	O.2	1	UNK0	-0.362	
49	   O	135.968	134.689	147.113	O.2	1	UNK0	-0.362	
50	   O	133.690	134.616	135.875	O.2	1	UNK0	-0.274	
51	   O	130.652	133.090	134.131	O.2	1	UNK0	-0.273	
52	   O	130.930	136.896	131.743	O.2	1	UNK0	-0.273	
53	   O	132.490	127.939	131.221	O.2	1	UNK0	-0.274	
54	   H	134.274	136.183	140.806	 H	1	UNK0	0.164	
55	   H	135.892	131.867	142.722	 H	1	UNK0	0.178	
56	   H	134.130	130.360	143.614	 H	1	UNK0	0.174	
57	   H	134.162	130.024	145.260	 H	1	UNK0	0.174	
58	   H	139.049	133.343	143.714	 H	1	UNK0	0.178	
59	   H	141.088	132.436	144.999	 H	1	UNK0	0.174	
60	   H	140.790	131.545	146.392	 H	1	UNK0	0.174	
61	   H	138.372	131.263	147.140	 H	1	UNK0	0.180	
62	   H	138.411	133.981	147.774	 H	1	UNK0	0.213	
63	   H	135.223	134.487	146.531	 H	1	UNK0	0.213	
64	   H	131.865	135.990	137.950	 H	1	UNK0	0.162	
65	   H	133.587	127.435	134.062	 H	1	UNK0	0.162	
@<TRIPOS>BOND
1 1 13 1
2 1 54 1
3 2 16 1
4 2 55 1
5 3 56 1
6 3 57 1
7 4 17 1
8 4 18 1
9 5 21 1
10 5 61 1
11 6 21 1
12 6 58 1
13 7 59 1
14 7 60 1
15 8 23 1
16 8 64 1
17 9 26 1
18 9 29 1
19 10 38 1
20 10 65 1
21 8 11 1
22 11 12 1
23 1 12 1
24 13 46 2
25 13 47 2
26 14 15 1
27 2 15 1
28 15 19 1
29 3 16 1
30 4 16 1
31 5 17 1
32 17 19 1
33 17 20 1
34 18 22 1
35 6 19 1
36 20 22 1
37 20 48 2
38 20 49 2
39 7 21 1
40 23 24 1
41 23 50 2
42 24 25 1
43 9 25 1
44 26 27 1
45 26 51 2
46 27 28 1
47 27 30 1
48 28 29 1
49 29 52 2
50 30 31 1
51 31 32 1
52 32 33 1
53 33 34 1
54 34 35 1
55 35 36 1
56 36 37 1
57 10 37 1
58 37 53 2
59 38 39 1
60 39 40 1
61 39 45 1
62 40 41 1
63 40 42 1
64 41 43 1
65 42 44 1
66 43 44 1
67 44 45 1
68 14 47 2
69 48 62 1
70 49 63 1
@<TRIPOS>SUBSTRUCTURE
1	UNK0	1	GROUP	1 ****	UNK
