# created with PyMOL 2.3.4
@<TRIPOS>MOLECULE
ligand_out_0001
32 34 1                 
SMALL
USER_CHARGES
@<TRIPOS>ATOM
1	   N	134.682	137.631	142.721	N.3	1	UNK0	-0.235	
2	   N	134.338	136.444	140.718	N.3	1	UNK0	-0.218	
3	   N	132.993	133.707	140.288	N.3	1	UNK0	-0.216	
4	   N	131.293	132.494	141.400	N.3	1	UNK0	-0.235	
5	   N	133.136	133.442	142.540	N.3	1	UNK0	-0.191	
6	   N	134.686	135.290	142.714	N.3	1	UNK0	-0.183	
7	   N	138.214	138.203	138.597	N.pl3	1	UNK0	-0.346	
8	   C	134.572	136.500	142.082	C.3	1	UNK0	0.672	
9	   C	134.829	135.285	139.979	C.3	1	UNK0	0.151	
10	   C	134.411	133.971	140.610	C.3	1	UNK0	0.180	
11	   C	132.406	133.173	141.409	C.3	1	UNK0	0.670	
12	   C	134.447	133.971	142.129	C.3	1	UNK0	0.217	
13	   C	135.128	135.030	144.097	C.3	1	UNK0	0.150	
14	   C	136.023	133.772	143.983	C.3	1	UNK0	0.093	
15	   C	135.568	133.071	142.678	C.3	1	UNK0	0.209	
16	   C	136.357	135.343	139.928	C.2	1	UNK0	0.208	
17	   C	137.740	137.277	139.453	C.2	1	UNK0	0.358	
18	   O	136.772	136.427	139.057	O.2	1	UNK0	-0.302	
19	   O	138.184	137.208	140.582	O.co2	1	UNK0	-0.239	
20	   O	135.069	131.763	142.964	O.2	1	UNK0	-0.362	
21	   O	136.649	133.000	141.746	O.2	1	UNK0	-0.362	
22	   H	134.601	138.470	142.241	 H	1	UNK0	0.174	
23	   H	134.843	137.633	143.678	 H	1	UNK0	0.174	
24	   H	130.826	132.339	140.564	 H	1	UNK0	0.174	
25	   H	130.933	132.143	142.230	 H	1	UNK0	0.174	
26	   H	133.860	137.156	140.267	 H	1	UNK0	0.178	
27	   H	132.555	133.879	139.439	 H	1	UNK0	0.178	
28	   H	132.839	133.304	143.453	 H	1	UNK0	0.180	
29	   H	137.859	138.258	137.695	 H	1	UNK0	0.161	
30	   H	138.912	138.814	138.881	 H	1	UNK0	0.161	
31	   H	134.338	131.603	142.351	 H	1	UNK0	0.213	
32	   H	137.464	133.109	142.255	 H	1	UNK0	0.213	
@<TRIPOS>BOND
1 1 8 1
2 1 22 1
3 1 23 1
4 2 9 1
5 2 26 1
6 3 11 1
7 3 27 1
8 4 24 1
9 4 25 1
10 5 28 1
11 6 13 1
12 7 29 1
13 7 30 1
14 2 8 1
15 6 8 1
16 9 10 1
17 9 16 1
18 3 10 1
19 10 12 1
20 4 11 1
21 5 11 1
22 5 12 1
23 6 12 1
24 12 15 1
25 13 14 1
26 14 15 1
27 15 20 2
28 15 21 2
29 16 18 2
30 7 17 1
31 17 19 2
32 17 18 2
33 20 31 1
34 21 32 1
@<TRIPOS>SUBSTRUCTURE
1	UNK0	1	GROUP	1 ****	UNK
