MODEL 1
REMARK VINA RESULT:      -7.8      0.000      0.000
REMARK  5 active torsions:
REMARK  status: ('A' for Active; 'I' for Inactive)
REMARK    1  A    between atoms: C_6  and  C_7 
REMARK    2  A    between atoms: C_7  and  O_8 
REMARK    3  A    between atoms: O_8  and  C_9 
REMARK       I    between atoms: C_9  and  N_10 
REMARK    4  A    between atoms: C_23  and  O_24 
REMARK    5  A    between atoms: C_23  and  O_25 
ROOT
ATOM      1  N           0     134.682 137.631 142.721  0.00  0.00    -0.235 N 
ATOM      2  H           0     134.601 138.470 142.241  0.00  0.00     0.174 HD
ATOM      3  H           0     134.843 137.633 143.678  0.00  0.00     0.174 HD
ATOM      4  C           0     134.572 136.500 142.082  0.00  0.00     0.672 C 
ATOM      5  N           0     134.338 136.444 140.718  0.00  0.00    -0.218 N 
ATOM      6  C           0     134.829 135.285 139.979  0.00  0.00     0.151 C 
ATOM      7  C           0     134.411 133.971 140.610  0.00  0.00     0.180 C 
ATOM      8  N           0     132.993 133.707 140.288  0.00  0.00    -0.216 N 
ATOM      9  C           0     132.406 133.173 141.409  0.00  0.00     0.670 C 
ATOM     10  N           0     131.293 132.494 141.400  0.00  0.00    -0.235 N 
ATOM     11  H           0     130.826 132.339 140.564  0.00  0.00     0.174 HD
ATOM     12  H           0     130.933 132.143 142.230  0.00  0.00     0.174 HD
ATOM     13  C           0     134.447 133.971 142.129  0.00  0.00     0.217 C 
ATOM     14  N           0     133.136 133.442 142.540  0.00  0.00    -0.191 N 
ATOM     15  N           0     134.686 135.290 142.714  0.00  0.00    -0.183 N 
ATOM     16  C           0     135.128 135.030 144.097  0.00  0.00     0.150 C 
ATOM     17  C           0     136.023 133.772 143.983  0.00  0.00     0.093 C 
ATOM     18  C           0     135.568 133.071 142.678  0.00  0.00     0.209 C 
ATOM     19  H           0     133.860 137.156 140.267  0.00  0.00     0.178 HD
ATOM     20  H           0     132.555 133.879 139.439  0.00  0.00     0.178 HD
ATOM     21  H           0     132.839 133.304 143.453  0.00  0.00     0.180 HD
ENDROOT
BRANCH   6  22
ATOM     22  C           0     136.357 135.343 139.928  0.00  0.00     0.208 C 
BRANCH  22  23
ATOM     23  O           0     136.772 136.427 139.057  0.00  0.00    -0.302 OA
BRANCH  23  24
ATOM     24  C           0     137.740 137.277 139.453  0.00  0.00     0.358 C 
ATOM     25  N           0     138.214 138.203 138.597  0.00  0.00    -0.346 N 
ATOM     26  H           0     137.859 138.258 137.695  0.00  0.00     0.161 HD
ATOM     27  H           0     138.912 138.814 138.881  0.00  0.00     0.161 HD
ATOM     28  O           0     138.184 137.208 140.582  0.00  0.00    -0.239 OA
ENDBRANCH  23  24
ENDBRANCH  22  23
ENDBRANCH   6  22
BRANCH  18  29
ATOM     29  O           0     135.069 131.763 142.964  0.00  0.00    -0.362 OA
ATOM     30  H           0     134.338 131.603 142.351  0.00  0.00     0.213 HD
ENDBRANCH  18  29
BRANCH  18  31
ATOM     31  O           0     136.649 133.000 141.746  0.00  0.00    -0.362 OA
ATOM     32  H           0     137.464 133.109 142.255  0.00  0.00     0.213 HD
ENDBRANCH  18  31
TORSDOF 5
ENDMDL
MODEL 2
REMARK VINA RESULT:      -7.8      2.411      5.300
REMARK  5 active torsions:
REMARK  status: ('A' for Active; 'I' for Inactive)
REMARK    1  A    between atoms: C_6  and  C_7 
REMARK    2  A    between atoms: C_7  and  O_8 
REMARK    3  A    between atoms: O_8  and  C_9 
REMARK       I    between atoms: C_9  and  N_10 
REMARK    4  A    between atoms: C_23  and  O_24 
REMARK    5  A    between atoms: C_23  and  O_25 
ROOT
ATOM      1  N           0     136.304 132.526 141.738  0.00  0.00    -0.235 N 
ATOM      2  H           0     136.056 131.693 141.308  0.00  0.00     0.174 HD
ATOM      3  H           0     136.763 132.512 142.593  0.00  0.00     0.174 HD
ATOM      4  C           0     136.023 133.664 141.168  0.00  0.00     0.672 C 
ATOM      5  N           0     135.374 133.736 139.947  0.00  0.00    -0.218 N 
ATOM      6  C           0     134.558 134.913 139.666  0.00  0.00     0.151 C 
ATOM      7  C           0     135.303 136.211 139.910  0.00  0.00     0.180 C 
ATOM      8  N           0     136.232 136.457 138.787  0.00  0.00    -0.216 N 
ATOM      9  C           0     137.394 136.965 139.313  0.00  0.00     0.670 C 
ATOM     10  N           0     138.283 137.626 138.626  0.00  0.00    -0.235 N 
ATOM     11  H           0     138.142 137.786 137.679  0.00  0.00     0.174 HD
ATOM     12  H           0     139.083 137.959 139.061  0.00  0.00     0.174 HD
ATOM     13  C           0     136.206 136.190 141.133  0.00  0.00     0.217 C 
ATOM     14  N           0     137.505 136.692 140.654  0.00  0.00    -0.191 N 
ATOM     15  N           0     136.347 134.866 141.740  0.00  0.00    -0.183 N 
ATOM     16  C           0     136.851 135.113 143.103  0.00  0.00     0.150 C 
ATOM     17  C           0     136.101 136.387 143.564  0.00  0.00     0.093 C 
ATOM     18  C           0     135.676 137.100 142.255  0.00  0.00     0.209 C 
ATOM     19  H           0     135.459 133.023 139.296  0.00  0.00     0.178 HD
ATOM     20  H           0     136.054 136.290 137.848  0.00  0.00     0.178 HD
ATOM     21  H           0     138.301 136.811 141.194  0.00  0.00     0.180 HD
ENDROOT
BRANCH   6  22
ATOM     22  C           0     133.319 134.880 140.563  0.00  0.00     0.208 C 
BRANCH  22  23
ATOM     23  O           0     132.428 133.825 140.119  0.00  0.00    -0.302 OA
BRANCH  23  24
ATOM     24  C           0     131.878 132.984 141.017  0.00  0.00     0.358 C 
ATOM     25  N           0     132.664 132.159 141.736  0.00  0.00    -0.346 N 
ATOM     26  H           0     133.626 132.170 141.607  0.00  0.00     0.161 HD
ATOM     27  H           0     132.269 131.553 142.382  0.00  0.00     0.161 HD
ATOM     28  O           0     130.674 132.971 141.178  0.00  0.00    -0.239 OA
ENDBRANCH  23  24
ENDBRANCH  22  23
ENDBRANCH   6  22
BRANCH  18  29
ATOM     29  O           0     136.274 138.395 142.177  0.00  0.00    -0.362 OA
ATOM     30  H           0     137.197 138.293 142.447  0.00  0.00     0.213 HD
ENDBRANCH  18  29
BRANCH  18  31
ATOM     31  O           0     134.252 137.201 142.181  0.00  0.00    -0.362 OA
ATOM     32  H           0     134.043 137.572 141.313  0.00  0.00     0.213 HD
ENDBRANCH  18  31
TORSDOF 5
ENDMDL
MODEL 3
REMARK VINA RESULT:      -7.3      2.378      3.553
REMARK  5 active torsions:
REMARK  status: ('A' for Active; 'I' for Inactive)
REMARK    1  A    between atoms: C_6  and  C_7 
REMARK    2  A    between atoms: C_7  and  O_8 
REMARK    3  A    between atoms: O_8  and  C_9 
REMARK       I    between atoms: C_9  and  N_10 
REMARK    4  A    between atoms: C_23  and  O_24 
REMARK    5  A    between atoms: C_23  and  O_25 
ROOT
ATOM      1  N           0     134.727 136.698 142.964  0.00  0.00    -0.235 N 
ATOM      2  H           0     133.910 137.100 142.632  0.00  0.00     0.174 HD
ATOM      3  H           0     135.489 137.258 143.183  0.00  0.00     0.174 HD
ATOM      4  C           0     134.802 135.406 143.122  0.00  0.00     0.672 C 
ATOM      5  N           0     133.742 134.566 142.829  0.00  0.00    -0.218 N 
ATOM      6  C           0     134.037 133.195 142.424  0.00  0.00     0.151 C 
ATOM      7  C           0     134.978 132.492 143.383  0.00  0.00     0.180 C 
ATOM      8  N           0     134.228 132.084 144.589  0.00  0.00    -0.216 N 
ATOM      9  C           0     135.040 132.301 145.675  0.00  0.00     0.670 C 
ATOM     10  N           0     134.871 131.740 146.840  0.00  0.00    -0.235 N 
ATOM     11  H           0     134.134 131.125 146.979  0.00  0.00     0.174 HD
ATOM     12  H           0     135.483 131.937 147.566  0.00  0.00     0.174 HD
ATOM     13  C           0     136.089 133.377 143.925  0.00  0.00     0.217 C 
ATOM     14  N           0     136.052 133.181 145.383  0.00  0.00    -0.191 N 
ATOM     15  N           0     135.937 134.791 143.582  0.00  0.00    -0.183 N 
ATOM     16  C           0     137.271 135.387 143.782  0.00  0.00     0.150 C 
ATOM     17  C           0     138.254 134.302 143.279  0.00  0.00     0.093 C 
ATOM     18  C           0     137.468 132.969 143.377  0.00  0.00     0.209 C 
ATOM     19  H           0     132.827 134.879 142.893  0.00  0.00     0.178 HD
ATOM     20  H           0     133.325 131.728 144.611  0.00  0.00     0.178 HD
ATOM     21  H           0     136.643 133.600 146.028  0.00  0.00     0.180 HD
ENDROOT
BRANCH   6  22
ATOM     22  C           0     134.677 133.218 141.034  0.00  0.00     0.208 C 
BRANCH  22  23
ATOM     23  O           0     133.784 133.881 140.101  0.00  0.00    -0.302 OA
BRANCH  23  24
ATOM     24  C           0     134.238 134.893 139.337  0.00  0.00     0.358 C 
ATOM     25  N           0     133.833 136.155 139.581  0.00  0.00    -0.346 N 
ATOM     26  H           0     133.214 136.335 140.306  0.00  0.00     0.161 HD
ATOM     27  H           0     134.159 136.884 139.030  0.00  0.00     0.161 HD
ATOM     28  O           0     135.014 134.668 138.429  0.00  0.00    -0.239 OA
ENDBRANCH  23  24
ENDBRANCH  22  23
ENDBRANCH   6  22
BRANCH  18  29
ATOM     29  O           0     138.121 132.071 144.276  0.00  0.00    -0.362 OA
ATOM     30  H           0     139.071 132.166 144.124  0.00  0.00     0.213 HD
ENDBRANCH  18  29
BRANCH  18  31
ATOM     31  O           0     137.333 132.374 142.085  0.00  0.00    -0.362 OA
ATOM     32  H           0     136.919 133.036 141.515  0.00  0.00     0.213 HD
ENDBRANCH  18  31
TORSDOF 5
ENDMDL
MODEL 4
REMARK VINA RESULT:      -7.0      1.799      5.232
REMARK  5 active torsions:
REMARK  status: ('A' for Active; 'I' for Inactive)
REMARK    1  A    between atoms: C_6  and  C_7 
REMARK    2  A    between atoms: C_7  and  O_8 
REMARK    3  A    between atoms: O_8  and  C_9 
REMARK       I    between atoms: C_9  and  N_10 
REMARK    4  A    between atoms: C_23  and  O_24 
REMARK    5  A    between atoms: C_23  and  O_25 
ROOT
ATOM      1  N           0     132.098 132.605 141.497  0.00  0.00    -0.235 N 
ATOM      2  H           0     131.828 131.932 142.141  0.00  0.00     0.174 HD
ATOM      3  H           0     131.610 132.701 140.663  0.00  0.00     0.174 HD
ATOM      4  C           0     133.111 133.384 141.752  0.00  0.00     0.672 C 
ATOM      5  N           0     133.835 133.289 142.928  0.00  0.00    -0.218 N 
ATOM      6  C           0     135.240 133.688 142.910  0.00  0.00     0.151 C 
ATOM      7  C           0     135.449 135.063 142.307  0.00  0.00     0.180 C 
ATOM      8  N           0     135.061 136.091 143.295  0.00  0.00    -0.216 N 
ATOM      9  C           0     134.414 137.095 142.617  0.00  0.00     0.670 C 
ATOM     10  N           0     134.252 138.304 143.077  0.00  0.00    -0.235 N 
ATOM     11  H           0     134.601 138.541 143.950  0.00  0.00     0.174 HD
ATOM     12  H           0     133.785 138.967 142.545  0.00  0.00     0.174 HD
ATOM     13  C           0     134.563 135.357 141.107  0.00  0.00     0.217 C 
ATOM     14  N           0     133.957 136.668 141.395  0.00  0.00    -0.191 N 
ATOM     15  N           0     133.533 134.345 140.871  0.00  0.00    -0.183 N 
ATOM     16  C           0     133.099 134.547 139.476  0.00  0.00     0.150 C 
ATOM     17  C           0     134.402 134.892 138.716  0.00  0.00     0.093 C 
ATOM     18  C           0     135.370 135.432 139.800  0.00  0.00     0.209 C 
ATOM     19  H           0     133.420 132.968 143.743  0.00  0.00     0.178 HD
ATOM     20  H           0     135.233 136.063 144.250  0.00  0.00     0.178 HD
ATOM     21  H           0     133.342 137.148 140.819  0.00  0.00     0.180 HD
ENDROOT
BRANCH   6  22
ATOM     22  C           0     136.032 132.666 142.092  0.00  0.00     0.208 C 
BRANCH  22  23
ATOM     23  O           0     136.657 131.709 142.987  0.00  0.00    -0.302 OA
BRANCH  23  24
ATOM     24  C           0     135.901 130.984 143.834  0.00  0.00     0.358 C 
ATOM     25  N           0     136.268 130.857 145.124  0.00  0.00    -0.346 N 
ATOM     26  H           0     137.077 131.287 145.444  0.00  0.00     0.161 HD
ATOM     27  H           0     135.724 130.334 145.734  0.00  0.00     0.161 HD
ATOM     28  O           0     134.888 130.446 143.433  0.00  0.00    -0.239 OA
ENDBRANCH  23  24
ENDBRANCH  22  23
ENDBRANCH   6  22
BRANCH  18  29
ATOM     29  O           0     135.738 136.782 139.511  0.00  0.00    -0.362 OA
ATOM     30  H           0     136.699 136.793 139.405  0.00  0.00     0.213 HD
ENDBRANCH  18  29
BRANCH  18  31
ATOM     31  O           0     136.532 134.604 139.886  0.00  0.00    -0.362 OA
ATOM     32  H           0     136.672 134.227 139.007  0.00  0.00     0.213 HD
ENDBRANCH  18  31
TORSDOF 5
ENDMDL
MODEL 5
REMARK VINA RESULT:      -7.0      3.036      5.198
REMARK  5 active torsions:
REMARK  status: ('A' for Active; 'I' for Inactive)
REMARK    1  A    between atoms: C_6  and  C_7 
REMARK    2  A    between atoms: C_7  and  O_8 
REMARK    3  A    between atoms: O_8  and  C_9 
REMARK       I    between atoms: C_9  and  N_10 
REMARK    4  A    between atoms: C_23  and  O_24 
REMARK    5  A    between atoms: C_23  and  O_25 
ROOT
ATOM      1  N           0     138.368 133.021 142.502  0.00  0.00    -0.235 N 
ATOM      2  H           0     138.845 132.302 142.944  0.00  0.00     0.174 HD
ATOM      3  H           0     138.822 133.571 141.843  0.00  0.00     0.174 HD
ATOM      4  C           0     137.117 133.248 142.789  0.00  0.00     0.672 C 
ATOM      5  N           0     136.425 132.490 143.718  0.00  0.00    -0.218 N 
ATOM      6  C           0     135.323 133.118 144.440  0.00  0.00     0.151 C 
ATOM      7  C           0     134.331 133.798 143.516  0.00  0.00     0.180 C 
ATOM      8  N           0     133.473 132.773 142.885  0.00  0.00    -0.216 N 
ATOM      9  C           0     133.278 133.143 141.577  0.00  0.00     0.670 C 
ATOM     10  N           0     132.310 132.699 140.826  0.00  0.00    -0.235 N 
ATOM     11  H           0     131.669 132.066 141.186  0.00  0.00     0.174 HD
ATOM     12  H           0     132.229 133.003 139.909  0.00  0.00     0.174 HD
ATOM     13  C           0     134.971 134.515 142.338  0.00  0.00     0.217 C 
ATOM     14  N           0     134.230 134.039 141.157  0.00  0.00    -0.191 N 
ATOM     15  N           0     136.403 134.256 142.196  0.00  0.00    -0.183 N 
ATOM     16  C           0     136.912 135.339 141.334  0.00  0.00     0.150 C 
ATOM     17  C           0     136.129 136.593 141.792  0.00  0.00     0.093 C 
ATOM     18  C           0     134.840 136.043 142.456  0.00  0.00     0.209 C 
ATOM     19  H           0     136.666 131.566 143.884  0.00  0.00     0.178 HD
ATOM     20  H           0     133.112 131.982 143.316  0.00  0.00     0.178 HD
ATOM     21  H           0     134.385 134.315 140.241  0.00  0.00     0.180 HD
ENDROOT
BRANCH   6  22
ATOM     22  C           0     135.894 134.160 145.403  0.00  0.00     0.208 C 
BRANCH  22  23
ATOM     23  O           0     135.794 133.668 146.765  0.00  0.00    -0.302 OA
BRANCH  23  24
ATOM     24  C           0     136.582 134.184 147.727  0.00  0.00     0.358 C 
ATOM     25  N           0     136.167 135.251 148.438  0.00  0.00    -0.346 N 
ATOM     26  H           0     135.300 135.648 148.256  0.00  0.00     0.161 HD
ATOM     27  H           0     136.735 135.624 149.131  0.00  0.00     0.161 HD
ATOM     28  O           0     137.667 133.687 147.955  0.00  0.00    -0.239 OA
ENDBRANCH  23  24
ENDBRANCH  22  23
ENDBRANCH   6  22
BRANCH  18  29
ATOM     29  O           0     133.684 136.505 141.755  0.00  0.00    -0.362 OA
ATOM     30  H           0     133.615 135.975 140.949  0.00  0.00     0.213 HD
ENDBRANCH  18  29
BRANCH  18  31
ATOM     31  O           0     134.782 136.432 143.829  0.00  0.00    -0.362 OA
ATOM     32  H           0     135.410 135.872 144.305  0.00  0.00     0.213 HD
ENDBRANCH  18  31
TORSDOF 5
ENDMDL
MODEL 6
REMARK VINA RESULT:      -6.9      2.444      4.256
REMARK  5 active torsions:
REMARK  status: ('A' for Active; 'I' for Inactive)
REMARK    1  A    between atoms: C_6  and  C_7 
REMARK    2  A    between atoms: C_7  and  O_8 
REMARK    3  A    between atoms: O_8  and  C_9 
REMARK       I    between atoms: C_9  and  N_10 
REMARK    4  A    between atoms: C_23  and  O_24 
REMARK    5  A    between atoms: C_23  and  O_25 
ROOT
ATOM      1  N           0     134.101 137.706 142.955  0.00  0.00    -0.235 N 
ATOM      2  H           0     133.233 137.675 143.386  0.00  0.00     0.174 HD
ATOM      3  H           0     134.649 138.503 143.026  0.00  0.00     0.174 HD
ATOM      4  C           0     134.533 136.675 142.284  0.00  0.00     0.672 C 
ATOM      5  N           0     133.791 135.514 142.157  0.00  0.00    -0.218 N 
ATOM      6  C           0     133.986 134.694 140.965  0.00  0.00     0.151 C 
ATOM      7  C           0     135.446 134.381 140.705  0.00  0.00     0.180 C 
ATOM      8  N           0     135.889 133.321 141.634  0.00  0.00    -0.216 N 
ATOM      9  C           0     137.162 133.634 142.044  0.00  0.00     0.670 C 
ATOM     10  N           0     137.997 132.777 142.563  0.00  0.00    -0.235 N 
ATOM     11  H           0     137.731 131.852 142.679  0.00  0.00     0.174 HD
ATOM     12  H           0     138.883 133.066 142.831  0.00  0.00     0.174 HD
ATOM     13  C           0     136.391 135.537 140.992  0.00  0.00     0.217 C 
ATOM     14  N           0     137.447 134.961 141.841  0.00  0.00    -0.191 N 
ATOM     15  N           0     135.750 136.674 141.652  0.00  0.00    -0.183 N 
ATOM     16  C           0     136.660 137.813 141.440  0.00  0.00     0.150 C 
ATOM     17  C           0     137.187 137.619 139.997  0.00  0.00     0.093 C 
ATOM     18  C           0     137.009 136.108 139.704  0.00  0.00     0.209 C 
ATOM     19  H           0     133.158 135.252 142.844  0.00  0.00     0.178 HD
ATOM     20  H           0     135.375 132.544 141.906  0.00  0.00     0.178 HD
ATOM     21  H           0     138.215 135.437 142.193  0.00  0.00     0.180 HD
ENDROOT
BRANCH   6  22
ATOM     22  C           0     133.418 135.439 139.756  0.00  0.00     0.208 C 
BRANCH  22  23
ATOM     23  O           0     133.346 134.538 138.621  0.00  0.00    -0.302 OA
BRANCH  23  24
ATOM     24  C           0     133.280 135.033 137.370  0.00  0.00     0.358 C 
ATOM     25  N           0     132.197 135.733 136.979  0.00  0.00    -0.346 N 
ATOM     26  H           0     131.464 135.880 137.599  0.00  0.00     0.161 HD
ATOM     27  H           0     132.149 136.089 136.078  0.00  0.00     0.161 HD
ATOM     28  O           0     134.197 134.848 136.594  0.00  0.00    -0.239 OA
ENDBRANCH  23  24
ENDBRANCH  22  23
ENDBRANCH   6  22
BRANCH  18  29
ATOM     29  O           0     138.275 135.500 139.440  0.00  0.00    -0.362 OA
ATOM     30  H           0     138.950 136.101 139.783  0.00  0.00     0.213 HD
ENDBRANCH  18  29
BRANCH  18  31
ATOM     31  O           0     136.122 135.915 138.600  0.00  0.00    -0.362 OA
ATOM     32  H           0     136.410 135.110 138.148  0.00  0.00     0.213 HD
ENDBRANCH  18  31
TORSDOF 5
ENDMDL
MODEL 7
REMARK VINA RESULT:      -6.8      2.088      2.480
REMARK  5 active torsions:
REMARK  status: ('A' for Active; 'I' for Inactive)
REMARK    1  A    between atoms: C_6  and  C_7 
REMARK    2  A    between atoms: C_7  and  O_8 
REMARK    3  A    between atoms: O_8  and  C_9 
REMARK       I    between atoms: C_9  and  N_10 
REMARK    4  A    between atoms: C_23  and  O_24 
REMARK    5  A    between atoms: C_23  and  O_25 
ROOT
ATOM      1  N           0     134.253 137.692 142.942  0.00  0.00    -0.235 N 
ATOM      2  H           0     133.507 138.237 142.648  0.00  0.00     0.174 HD
ATOM      3  H           0     134.813 137.992 143.676  0.00  0.00     0.174 HD
ATOM      4  C           0     134.503 136.555 142.355  0.00  0.00     0.672 C 
ATOM      5  N           0     133.732 136.082 141.307  0.00  0.00    -0.218 N 
ATOM      6  C           0     134.364 135.207 140.324  0.00  0.00     0.151 C 
ATOM      7  C           0     135.101 134.046 140.963  0.00  0.00     0.180 C 
ATOM      8  N           0     134.120 133.027 141.394  0.00  0.00    -0.216 N 
ATOM      9  C           0     134.540 132.536 142.607  0.00  0.00     0.670 C 
ATOM     10  N           0     134.147 131.401 143.113  0.00  0.00    -0.235 N 
ATOM     11  H           0     133.518 130.845 142.625  0.00  0.00     0.174 HD
ATOM     12  H           0     134.483 131.112 143.975  0.00  0.00     0.174 HD
ATOM     13  C           0     135.840 134.407 142.241  0.00  0.00     0.217 C 
ATOM     14  N           0     135.424 133.388 143.220  0.00  0.00    -0.191 N 
ATOM     15  N           0     135.549 135.754 142.732  0.00  0.00    -0.183 N 
ATOM     16  C           0     136.647 136.076 143.662  0.00  0.00     0.150 C 
ATOM     17  C           0     137.905 135.468 142.995  0.00  0.00     0.093 C 
ATOM     18  C           0     137.367 134.360 142.055  0.00  0.00     0.209 C 
ATOM     19  H           0     132.797 136.325 141.229  0.00  0.00     0.178 HD
ATOM     20  H           0     133.325 132.755 140.910  0.00  0.00     0.178 HD
ATOM     21  H           0     135.726 133.328 144.139  0.00  0.00     0.180 HD
ENDROOT
BRANCH   6  22
ATOM     22  C           0     135.358 136.028 139.500  0.00  0.00     0.208 C 
BRANCH  22  23
ATOM     23  O           0     135.770 135.265 138.337  0.00  0.00    -0.302 OA
BRANCH  23  24
ATOM     24  C           0     135.498 135.722 137.099  0.00  0.00     0.358 C 
ATOM     25  N           0     134.415 135.270 136.437  0.00  0.00    -0.346 N 
ATOM     26  H           0     133.831 134.615 136.851  0.00  0.00     0.161 HD
ATOM     27  H           0     134.220 135.599 135.545  0.00  0.00     0.161 HD
ATOM     28  O           0     136.230 136.543 136.581  0.00  0.00    -0.239 OA
ENDBRANCH  23  24
ENDBRANCH  22  23
ENDBRANCH   6  22
BRANCH  18  29
ATOM     29  O           0     137.882 133.085 142.443  0.00  0.00    -0.362 OA
ATOM     30  H           0     137.623 132.458 141.754  0.00  0.00     0.213 HD
ENDBRANCH  18  29
BRANCH  18  31
ATOM     31  O           0     137.711 134.647 140.698  0.00  0.00    -0.362 OA
ATOM     32  H           0     138.098 135.533 140.690  0.00  0.00     0.213 HD
ENDBRANCH  18  31
TORSDOF 5
ENDMDL
MODEL 8
REMARK VINA RESULT:      -6.7      3.667      5.460
REMARK  5 active torsions:
REMARK  status: ('A' for Active; 'I' for Inactive)
REMARK    1  A    between atoms: C_6  and  C_7 
REMARK    2  A    between atoms: C_7  and  O_8 
REMARK    3  A    between atoms: O_8  and  C_9 
REMARK       I    between atoms: C_9  and  N_10 
REMARK    4  A    between atoms: C_23  and  O_24 
REMARK    5  A    between atoms: C_23  and  O_25 
ROOT
ATOM      1  N           0     135.192 130.517 143.072  0.00  0.00    -0.235 N 
ATOM      2  H           0     135.065 130.336 142.127  0.00  0.00     0.174 HD
ATOM      3  H           0     134.718 129.990 143.734  0.00  0.00     0.174 HD
ATOM      4  C           0     136.003 131.464 143.452  0.00  0.00     0.672 C 
ATOM      5  N           0     136.706 132.240 142.546  0.00  0.00    -0.218 N 
ATOM      6  C           0     137.068 133.600 142.934  0.00  0.00     0.151 C 
ATOM      7  C           0     137.762 133.657 144.281  0.00  0.00     0.180 C 
ATOM      8  N           0     139.164 133.216 144.124  0.00  0.00    -0.216 N 
ATOM      9  C           0     139.484 132.453 145.220  0.00  0.00     0.670 C 
ATOM     10  N           0     140.702 132.199 145.607  0.00  0.00    -0.235 N 
ATOM     11  H           0     141.453 132.559 145.109  0.00  0.00     0.174 HD
ATOM     12  H           0     140.858 131.652 146.392  0.00  0.00     0.174 HD
ATOM     13  C           0     137.192 132.701 145.316  0.00  0.00     0.217 C 
ATOM     14  N           0     138.360 131.989 145.859  0.00  0.00    -0.191 N 
ATOM     15  N           0     136.211 131.760 144.773  0.00  0.00    -0.183 N 
ATOM     16  C           0     135.467 131.255 145.942  0.00  0.00     0.150 C 
ATOM     17  C           0     135.315 132.490 146.863  0.00  0.00     0.093 C 
ATOM     18  C           0     136.462 133.446 146.447  0.00  0.00     0.209 C 
ATOM     19  H           0     136.952 131.888 141.676  0.00  0.00     0.178 HD
ATOM     20  H           0     139.753 133.428 143.382  0.00  0.00     0.178 HD
ATOM     21  H           0     138.340 131.311 146.551  0.00  0.00     0.180 HD
ENDROOT
BRANCH   6  22
ATOM     22  C           0     135.798 134.450 142.997  0.00  0.00     0.208 C 
BRANCH  22  23
ATOM     23  O           0     136.146 135.818 143.330  0.00  0.00    -0.302 OA
BRANCH  23  24
ATOM     24  C           0     135.666 136.835 142.589  0.00  0.00     0.358 C 
ATOM     25  N           0     134.345 136.916 142.331  0.00  0.00    -0.346 N 
ATOM     26  H           0     133.741 136.242 142.679  0.00  0.00     0.161 HD
ATOM     27  H           0     133.999 137.648 141.797  0.00  0.00     0.161 HD
ATOM     28  O           0     136.423 137.680 142.154  0.00  0.00    -0.239 OA
ENDBRANCH  23  24
ENDBRANCH  22  23
ENDBRANCH   6  22
BRANCH  18  29
ATOM     29  O           0     137.342 133.676 147.548  0.00  0.00    -0.362 OA
ATOM     30  H           0     137.847 134.475 147.340  0.00  0.00     0.213 HD
ENDBRANCH  18  29
BRANCH  18  31
ATOM     31  O           0     135.930 134.682 145.965  0.00  0.00    -0.362 OA
ATOM     32  H           0     136.030 135.326 146.679  0.00  0.00     0.213 HD
ENDBRANCH  18  31
TORSDOF 5
ENDMDL
MODEL 9
REMARK VINA RESULT:      -6.6      3.829      5.068
REMARK  5 active torsions:
REMARK  status: ('A' for Active; 'I' for Inactive)
REMARK    1  A    between atoms: C_6  and  C_7 
REMARK    2  A    between atoms: C_7  and  O_8 
REMARK    3  A    between atoms: O_8  and  C_9 
REMARK       I    between atoms: C_9  and  N_10 
REMARK    4  A    between atoms: C_23  and  O_24 
REMARK    5  A    between atoms: C_23  and  O_25 
ROOT
ATOM      1  N           0     136.285 135.141 148.020  0.00  0.00    -0.235 N 
ATOM      2  H           0     135.684 135.900 147.967  0.00  0.00     0.174 HD
ATOM      3  H           0     136.862 135.033 148.792  0.00  0.00     0.174 HD
ATOM      4  C           0     136.315 134.263 147.056  0.00  0.00     0.672 C 
ATOM      5  N           0     135.508 134.370 145.937  0.00  0.00    -0.218 N 
ATOM      6  C           0     135.984 133.792 144.683  0.00  0.00     0.151 C 
ATOM      7  C           0     136.431 132.351 144.837  0.00  0.00     0.180 C 
ATOM      8  N           0     135.241 131.478 144.910  0.00  0.00    -0.216 N 
ATOM      9  C           0     135.494 130.510 145.850  0.00  0.00     0.670 C 
ATOM     10  N           0     134.850 129.379 145.930  0.00  0.00    -0.235 N 
ATOM     11  H           0     134.140 129.181 145.299  0.00  0.00     0.174 HD
ATOM     12  H           0     135.080 128.738 146.620  0.00  0.00     0.174 HD
ATOM     13  C           0     137.174 132.066 146.133  0.00  0.00     0.217 C 
ATOM     14  N           0     136.511 130.878 146.696  0.00  0.00    -0.191 N 
ATOM     15  N           0     137.152 133.178 147.083  0.00  0.00    -0.183 N 
ATOM     16  C           0     138.251 132.906 148.027  0.00  0.00     0.150 C 
ATOM     17  C           0     139.381 132.325 147.143  0.00  0.00     0.093 C 
ATOM     18  C           0     138.663 131.767 145.888  0.00  0.00     0.209 C 
ATOM     19  H           0     134.649 134.817 145.984  0.00  0.00     0.178 HD
ATOM     20  H           0     134.428 131.572 144.389  0.00  0.00     0.178 HD
ATOM     21  H           0     136.753 130.431 147.522  0.00  0.00     0.180 HD
ENDROOT
BRANCH   6  22
ATOM     22  C           0     137.163 134.623 144.173  0.00  0.00     0.208 C 
BRANCH  22  23
ATOM     23  O           0     137.468 134.243 142.806  0.00  0.00    -0.302 OA
BRANCH  23  24
ATOM     24  C           0     137.378 135.153 141.818  0.00  0.00     0.358 C 
ATOM     25  N           0     136.479 134.987 140.828  0.00  0.00    -0.346 N 
ATOM     26  H           0     135.895 134.212 140.827  0.00  0.00     0.161 HD
ATOM     27  H           0     136.414 135.643 140.116  0.00  0.00     0.161 HD
ATOM     28  O           0     138.108 136.125 141.819  0.00  0.00    -0.239 OA
ENDBRANCH  23  24
ENDBRANCH  22  23
ENDBRANCH   6  22
BRANCH  18  29
ATOM     29  O           0     138.881 130.360 145.775  0.00  0.00    -0.362 OA
ATOM     30  H           0     139.509 130.232 145.050  0.00  0.00     0.213 HD
ENDBRANCH  18  29
BRANCH  18  31
ATOM     31  O           0     139.118 132.440 144.712  0.00  0.00    -0.362 OA
ATOM     32  H           0     138.361 132.929 144.360  0.00  0.00     0.213 HD
ENDBRANCH  18  31
TORSDOF 5
ENDMDL
