MODEL 1
REMARK VINA RESULT:      -8.0      0.000      0.000
REMARK  5 active torsions:
REMARK  status: ('A' for Active; 'I' for Inactive)
REMARK    1  A    between atoms: C_6  and  C_7 
REMARK    2  A    between atoms: C_7  and  O_8 
REMARK    3  A    between atoms: O_8  and  C_9 
REMARK       I    between atoms: C_9  and  N_10 
REMARK    4  A    between atoms: C_23  and  O_24 
REMARK    5  A    between atoms: C_23  and  O_25 
ROOT
ATOM      1  N           0     135.060 136.786 143.154  0.00  0.00    -0.235 N 
ATOM      2  H           0     134.278 137.305 142.908  0.00  0.00     0.174 HD
ATOM      3  H           0     135.904 137.233 143.328  0.00  0.00     0.174 HD
ATOM      4  C           0     134.977 135.490 143.256  0.00  0.00     0.672 C 
ATOM      5  N           0     133.796 134.806 143.024  0.00  0.00    -0.218 N 
ATOM      6  C           0     133.876 133.430 142.544  0.00  0.00     0.151 C 
ATOM      7  C           0     134.790 132.567 143.393  0.00  0.00     0.180 C 
ATOM      8  N           0     134.090 132.202 144.643  0.00  0.00    -0.216 N 
ATOM      9  C           0     135.007 132.261 145.663  0.00  0.00     0.670 C 
ATOM     10  N           0     134.859 131.671 146.816  0.00  0.00    -0.235 N 
ATOM     11  H           0     134.061 131.149 146.995  0.00  0.00     0.174 HD
ATOM     12  H           0     135.547 131.753 147.495  0.00  0.00     0.174 HD
ATOM     13  C           0     136.046 133.277 143.871  0.00  0.00     0.217 C 
ATOM     14  N           0     136.100 133.018 145.320  0.00  0.00    -0.191 N 
ATOM     15  N           0     136.054 134.714 143.596  0.00  0.00    -0.183 N 
ATOM     16  C           0     137.466 135.124 143.704  0.00  0.00     0.150 C 
ATOM     17  C           0     138.256 133.947 143.080  0.00  0.00     0.093 C 
ATOM     18  C           0     137.312 132.723 143.194  0.00  0.00     0.209 C 
ATOM     19  H           0     132.938 135.231 143.177  0.00  0.00     0.178 HD
ATOM     20  H           0     133.153 131.963 144.727  0.00  0.00     0.178 HD
ATOM     21  H           0     136.790 133.326 145.927  0.00  0.00     0.180 HD
ENDROOT
BRANCH   6  22
ATOM     22  C           0     134.401 133.438 141.107  0.00  0.00     0.208 C 
BRANCH  22  23
ATOM     23  O           0     133.314 133.747 140.196  0.00  0.00    -0.302 OA
BRANCH  23  24
ATOM     24  C           0     133.411 134.801 139.364  0.00  0.00     0.358 C 
ATOM     25  N           0     133.534 136.046 139.866  0.00  0.00    -0.346 N 
ATOM     26  H           0     133.553 136.183 140.826  0.00  0.00     0.161 HD
ATOM     27  H           0     133.603 136.806 139.267  0.00  0.00     0.161 HD
ATOM     28  O           0     133.387 134.630 138.161  0.00  0.00    -0.239 OA
ENDBRANCH  23  24
ENDBRANCH  22  23
ENDBRANCH   6  22
BRANCH  18  29
ATOM     29  O           0     137.911 131.707 144.001  0.00  0.00    -0.362 OA
ATOM     30  H           0     137.454 131.722 144.853  0.00  0.00     0.213 HD
ENDBRANCH  18  29
BRANCH  18  31
ATOM     31  O           0     136.999 132.212 141.897  0.00  0.00    -0.362 OA
ATOM     32  H           0     137.334 131.306 141.866  0.00  0.00     0.213 HD
ENDBRANCH  18  31
TORSDOF 5
ENDMDL
MODEL 2
REMARK VINA RESULT:      -7.4      1.923      5.679
REMARK  5 active torsions:
REMARK  status: ('A' for Active; 'I' for Inactive)
REMARK    1  A    between atoms: C_6  and  C_7 
REMARK    2  A    between atoms: C_7  and  O_8 
REMARK    3  A    between atoms: O_8  and  C_9 
REMARK       I    between atoms: C_9  and  N_10 
REMARK    4  A    between atoms: C_23  and  O_24 
REMARK    5  A    between atoms: C_23  and  O_25 
ROOT
ATOM      1  N           0     134.906 132.144 146.767  0.00  0.00    -0.235 N 
ATOM      2  H           0     135.157 132.264 147.696  0.00  0.00     0.174 HD
ATOM      3  H           0     134.244 131.476 146.525  0.00  0.00     0.174 HD
ATOM      4  C           0     135.455 132.881 145.842  0.00  0.00     0.672 C 
ATOM      5  N           0     136.400 133.849 146.136  0.00  0.00    -0.218 N 
ATOM      6  C           0     137.392 134.179 145.117  0.00  0.00     0.151 C 
ATOM      7  C           0     136.766 134.488 143.771  0.00  0.00     0.180 C 
ATOM      8  N           0     136.192 135.849 143.802  0.00  0.00    -0.216 N 
ATOM      9  C           0     135.001 135.813 143.119  0.00  0.00     0.670 C 
ATOM     10  N           0     134.403 136.865 142.634  0.00  0.00    -0.235 N 
ATOM     11  H           0     134.799 137.743 142.746  0.00  0.00     0.174 HD
ATOM     12  H           0     133.562 136.768 142.160  0.00  0.00     0.174 HD
ATOM     13  C           0     135.584 133.601 143.417  0.00  0.00     0.217 C 
ATOM     14  N           0     134.519 134.533 143.009  0.00  0.00    -0.191 N 
ATOM     15  N           0     135.138 132.744 144.516  0.00  0.00    -0.183 N 
ATOM     16  C           0     134.333 131.684 143.883  0.00  0.00     0.150 C 
ATOM     17  C           0     135.083 131.368 142.566  0.00  0.00     0.093 C 
ATOM     18  C           0     135.910 132.642 142.258  0.00  0.00     0.209 C 
ATOM     19  H           0     136.401 134.297 146.996  0.00  0.00     0.178 HD
ATOM     20  H           0     136.585 136.628 144.228  0.00  0.00     0.178 HD
ATOM     21  H           0     133.630 134.285 142.712  0.00  0.00     0.180 HD
ENDROOT
BRANCH   6  22
ATOM     22  C           0     138.347 132.995 144.957  0.00  0.00     0.208 C 
BRANCH  22  23
ATOM     23  O           0     138.963 132.692 146.236  0.00  0.00    -0.302 OA
BRANCH  23  24
ATOM     24  C           0     138.789 131.480 146.797  0.00  0.00     0.358 C 
ATOM     25  N           0     138.290 130.464 146.066  0.00  0.00    -0.346 N 
ATOM     26  H           0     138.056 130.605 145.135  0.00  0.00     0.161 HD
ATOM     27  H           0     138.165 129.591 146.471  0.00  0.00     0.161 HD
ATOM     28  O           0     139.083 131.304 147.963  0.00  0.00    -0.239 OA
ENDBRANCH  23  24
ENDBRANCH  22  23
ENDBRANCH   6  22
BRANCH  18  29
ATOM     29  O           0     135.508 133.207 141.009  0.00  0.00    -0.362 OA
ATOM     30  H           0     135.624 134.164 141.085  0.00  0.00     0.213 HD
ENDBRANCH  18  29
BRANCH  18  31
ATOM     31  O           0     137.306 132.339 142.243  0.00  0.00    -0.362 OA
ATOM     32  H           0     137.384 131.393 142.056  0.00  0.00     0.213 HD
ENDBRANCH  18  31
TORSDOF 5
ENDMDL
MODEL 3
REMARK VINA RESULT:      -7.0      2.980      4.463
REMARK  5 active torsions:
REMARK  status: ('A' for Active; 'I' for Inactive)
REMARK    1  A    between atoms: C_6  and  C_7 
REMARK    2  A    between atoms: C_7  and  O_8 
REMARK    3  A    between atoms: O_8  and  C_9 
REMARK       I    between atoms: C_9  and  N_10 
REMARK    4  A    between atoms: C_23  and  O_24 
REMARK    5  A    between atoms: C_23  and  O_25 
ROOT
ATOM      1  N           0     136.058 134.625 147.235  0.00  0.00    -0.235 N 
ATOM      2  H           0     135.584 135.336 146.778  0.00  0.00     0.174 HD
ATOM      3  H           0     136.544 134.813 148.054  0.00  0.00     0.174 HD
ATOM      4  C           0     136.040 133.414 146.753  0.00  0.00     0.672 C 
ATOM      5  N           0     135.358 133.093 145.591  0.00  0.00    -0.218 N 
ATOM      6  C           0     135.849 131.978 144.787  0.00  0.00     0.151 C 
ATOM      7  C           0     136.061 130.718 145.603  0.00  0.00     0.180 C 
ATOM      8  N           0     134.751 130.086 145.869  0.00  0.00    -0.216 N 
ATOM      9  C           0     134.775 129.612 147.158  0.00  0.00     0.670 C 
ATOM     10  N           0     133.964 128.701 147.619  0.00  0.00    -0.235 N 
ATOM     11  H           0     133.290 128.314 147.038  0.00  0.00     0.174 HD
ATOM     12  H           0     134.035 128.411 148.542  0.00  0.00     0.174 HD
ATOM     13  C           0     136.637 130.963 146.988  0.00  0.00     0.217 C 
ATOM     14  N           0     135.758 130.216 147.902  0.00  0.00    -0.191 N 
ATOM     15  N           0     136.699 132.377 147.360  0.00  0.00    -0.183 N 
ATOM     16  C           0     137.660 132.445 148.476  0.00  0.00     0.150 C 
ATOM     17  C           0     138.762 131.427 148.096  0.00  0.00     0.093 C 
ATOM     18  C           0     138.080 130.444 147.110  0.00  0.00     0.209 C 
ATOM     19  H           0     134.575 133.596 145.320  0.00  0.00     0.178 HD
ATOM     20  H           0     134.010 130.018 145.248  0.00  0.00     0.178 HD
ATOM     21  H           0     135.858 130.158 148.865  0.00  0.00     0.180 HD
ENDROOT
BRANCH   6  22
ATOM     22  C           0     137.179 132.380 144.146  0.00  0.00     0.208 C 
BRANCH  22  23
ATOM     23  O           0     136.937 133.352 143.097  0.00  0.00    -0.302 OA
BRANCH  23  24
ATOM     24  C           0     137.449 134.594 143.197  0.00  0.00     0.358 C 
ATOM     25  N           0     136.654 135.624 143.547  0.00  0.00    -0.346 N 
ATOM     26  H           0     135.713 135.472 143.726  0.00  0.00     0.161 HD
ATOM     27  H           0     137.023 136.519 143.619  0.00  0.00     0.161 HD
ATOM     28  O           0     138.628 134.785 142.973  0.00  0.00    -0.239 OA
ENDBRANCH  23  24
ENDBRANCH  22  23
ENDBRANCH   6  22
BRANCH  18  29
ATOM     29  O           0     138.095 129.118 147.640  0.00  0.00    -0.362 OA
ATOM     30  H           0     138.860 129.061 148.229  0.00  0.00     0.213 HD
ENDBRANCH  18  29
BRANCH  18  31
ATOM     31  O           0     138.731 130.482 145.838  0.00  0.00    -0.362 OA
ATOM     32  H           0     138.589 129.618 145.427  0.00  0.00     0.213 HD
ENDBRANCH  18  31
TORSDOF 5
ENDMDL
MODEL 4
REMARK VINA RESULT:      -6.6      1.785      1.950
REMARK  5 active torsions:
REMARK  status: ('A' for Active; 'I' for Inactive)
REMARK    1  A    between atoms: C_6  and  C_7 
REMARK    2  A    between atoms: C_7  and  O_8 
REMARK    3  A    between atoms: O_8  and  C_9 
REMARK       I    between atoms: C_9  and  N_10 
REMARK    4  A    between atoms: C_23  and  O_24 
REMARK    5  A    between atoms: C_23  and  O_25 
ROOT
ATOM      1  N           0     136.190 135.976 143.452  0.00  0.00    -0.235 N 
ATOM      2  H           0     135.519 136.568 143.080  0.00  0.00     0.174 HD
ATOM      3  H           0     137.117 136.260 143.496  0.00  0.00     0.174 HD
ATOM      4  C           0     135.848 134.799 143.897  0.00  0.00     0.672 C 
ATOM      5  N           0     134.540 134.350 143.862  0.00  0.00    -0.218 N 
ATOM      6  C           0     134.304 132.912 143.766  0.00  0.00     0.151 C 
ATOM      7  C           0     135.071 132.124 144.810  0.00  0.00     0.180 C 
ATOM      8  N           0     134.391 132.255 146.115  0.00  0.00    -0.216 N 
ATOM      9  C           0     135.362 132.378 147.079  0.00  0.00     0.670 C 
ATOM     10  N           0     135.168 132.154 148.348  0.00  0.00    -0.235 N 
ATOM     11  H           0     134.292 131.881 148.663  0.00  0.00     0.174 HD
ATOM     12  H           0     135.899 132.259 148.976  0.00  0.00     0.174 HD
ATOM     13  C           0     136.474 132.646 145.075  0.00  0.00     0.217 C 
ATOM     14  N           0     136.563 132.766 146.540  0.00  0.00    -0.191 N 
ATOM     15  N           0     136.762 133.925 144.426  0.00  0.00    -0.183 N 
ATOM     16  C           0     138.232 134.035 144.414  0.00  0.00     0.150 C 
ATOM     17  C           0     138.721 132.595 144.122  0.00  0.00     0.093 C 
ATOM     18  C           0     137.554 131.676 144.564  0.00  0.00     0.209 C 
ATOM     19  H           0     133.799 134.974 143.900  0.00  0.00     0.178 HD
ATOM     20  H           0     133.432 132.255 146.266  0.00  0.00     0.178 HD
ATOM     21  H           0     137.339 133.066 147.039  0.00  0.00     0.180 HD
ENDROOT
BRANCH   6  22
ATOM     22  C           0     134.729 132.434 142.377  0.00  0.00     0.208 C 
BRANCH  22  23
ATOM     23  O           0     133.555 132.034 141.622  0.00  0.00    -0.302 OA
BRANCH  23  24
ATOM     24  C           0     132.622 132.948 141.293  0.00  0.00     0.358 C 
ATOM     25  N           0     131.320 132.698 141.534  0.00  0.00    -0.346 N 
ATOM     26  H           0     131.054 131.860 141.945  0.00  0.00     0.161 HD
ATOM     27  H           0     130.648 133.356 141.296  0.00  0.00     0.161 HD
ATOM     28  O           0     132.955 133.997 140.778  0.00  0.00    -0.239 OA
ENDBRANCH  23  24
ENDBRANCH  22  23
ENDBRANCH   6  22
BRANCH  18  29
ATOM     29  O           0     137.980 130.800 145.610  0.00  0.00    -0.362 OA
ATOM     30  H           0     138.822 131.144 145.937  0.00  0.00     0.213 HD
ENDBRANCH  18  29
BRANCH  18  31
ATOM     31  O           0     137.062 130.926 143.452  0.00  0.00    -0.362 OA
ATOM     32  H           0     136.813 130.055 143.791  0.00  0.00     0.213 HD
ENDBRANCH  18  31
TORSDOF 5
ENDMDL
MODEL 5
REMARK VINA RESULT:      -6.6      2.793      4.619
REMARK  5 active torsions:
REMARK  status: ('A' for Active; 'I' for Inactive)
REMARK    1  A    between atoms: C_6  and  C_7 
REMARK    2  A    between atoms: C_7  and  O_8 
REMARK    3  A    between atoms: O_8  and  C_9 
REMARK       I    between atoms: C_9  and  N_10 
REMARK    4  A    between atoms: C_23  and  O_24 
REMARK    5  A    between atoms: C_23  and  O_25 
ROOT
ATOM      1  N           0     139.514 130.719 145.830  0.00  0.00    -0.235 N 
ATOM      2  H           0     140.267 130.863 145.237  0.00  0.00     0.174 HD
ATOM      3  H           0     139.530 129.985 146.465  0.00  0.00     0.174 HD
ATOM      4  C           0     138.481 131.513 145.780  0.00  0.00     0.672 C 
ATOM      5  N           0     138.412 132.576 144.896  0.00  0.00    -0.218 N 
ATOM      6  C           0     137.095 133.013 144.441  0.00  0.00     0.151 C 
ATOM      7  C           0     136.132 133.255 145.586  0.00  0.00     0.180 C 
ATOM      8  N           0     136.454 134.547 146.227  0.00  0.00    -0.216 N 
ATOM      9  C           0     136.309 134.384 147.584  0.00  0.00     0.670 C 
ATOM     10  N           0     136.155 135.366 148.427  0.00  0.00    -0.235 N 
ATOM     11  H           0     136.138 136.282 148.107  0.00  0.00     0.174 HD
ATOM     12  H           0     136.057 135.181 149.374  0.00  0.00     0.174 HD
ATOM     13  C           0     136.245 132.247 146.718  0.00  0.00     0.217 C 
ATOM     14  N           0     136.345 133.060 147.941  0.00  0.00    -0.191 N 
ATOM     15  N           0     137.391 131.345 146.593  0.00  0.00    -0.183 N 
ATOM     16  C           0     137.089 130.205 147.478  0.00  0.00     0.150 C 
ATOM     17  C           0     135.568 129.975 147.300  0.00  0.00     0.093 C 
ATOM     18  C           0     135.011 131.331 146.798  0.00  0.00     0.209 C 
ATOM     19  H           0     139.217 133.020 144.589  0.00  0.00     0.178 HD
ATOM     20  H           0     136.720 135.362 145.774  0.00  0.00     0.178 HD
ATOM     21  H           0     136.421 132.718 148.846  0.00  0.00     0.180 HD
ENDROOT
BRANCH   6  22
ATOM     22  C           0     136.510 131.938 143.523  0.00  0.00     0.208 C 
BRANCH  22  23
ATOM     23  O           0     135.152 132.299 143.158  0.00  0.00    -0.302 OA
BRANCH  23  24
ATOM     24  C           0     134.906 132.883 141.970  0.00  0.00     0.358 C 
ATOM     25  N           0     135.908 133.063 141.087  0.00  0.00    -0.346 N 
ATOM     26  H           0     136.807 132.774 141.308  0.00  0.00     0.161 HD
ATOM     27  H           0     135.731 133.484 140.231  0.00  0.00     0.161 HD
ATOM     28  O           0     133.779 133.245 141.693  0.00  0.00    -0.239 OA
ENDBRANCH  23  24
ENDBRANCH  22  23
ENDBRANCH   6  22
BRANCH  18  29
ATOM     29  O           0     134.058 131.852 147.726  0.00  0.00    -0.362 OA
ATOM     30  H           0     134.122 131.310 148.526  0.00  0.00     0.213 HD
ENDBRANCH  18  29
BRANCH  18  31
ATOM     31  O           0     134.420 131.180 145.506  0.00  0.00    -0.362 OA
ATOM     32  H           0     134.086 130.273 145.457  0.00  0.00     0.213 HD
ENDBRANCH  18  31
TORSDOF 5
ENDMDL
MODEL 6
REMARK VINA RESULT:      -6.5      2.932      5.737
REMARK  5 active torsions:
REMARK  status: ('A' for Active; 'I' for Inactive)
REMARK    1  A    between atoms: C_6  and  C_7 
REMARK    2  A    between atoms: C_7  and  O_8 
REMARK    3  A    between atoms: O_8  and  C_9 
REMARK       I    between atoms: C_9  and  N_10 
REMARK    4  A    between atoms: C_23  and  O_24 
REMARK    5  A    between atoms: C_23  and  O_25 
ROOT
ATOM      1  N           0     138.821 130.792 145.552  0.00  0.00    -0.235 N 
ATOM      2  H           0     138.955 130.084 146.201  0.00  0.00     0.174 HD
ATOM      3  H           0     139.573 131.129 145.040  0.00  0.00     0.174 HD
ATOM      4  C           0     137.630 131.288 145.364  0.00  0.00     0.672 C 
ATOM      5  N           0     136.525 130.838 146.067  0.00  0.00    -0.218 N 
ATOM      6  C           0     135.425 131.770 146.296  0.00  0.00     0.151 C 
ATOM      7  C           0     134.961 132.450 145.023  0.00  0.00     0.180 C 
ATOM      8  N           0     134.137 131.506 144.240  0.00  0.00    -0.216 N 
ATOM      9  C           0     134.457 131.677 142.915  0.00  0.00     0.670 C 
ATOM     10  N           0     133.702 131.296 141.924  0.00  0.00    -0.235 N 
ATOM     11  H           0     132.853 130.860 142.101  0.00  0.00     0.174 HD
ATOM     12  H           0     133.988 131.448 141.010  0.00  0.00     0.174 HD
ATOM     13  C           0     136.087 132.828 144.074  0.00  0.00     0.217 C 
ATOM     14  N           0     135.670 132.301 142.764  0.00  0.00    -0.191 N 
ATOM     15  N           0     137.391 132.293 144.463  0.00  0.00    -0.183 N 
ATOM     16  C           0     138.380 133.102 143.728  0.00  0.00     0.150 C 
ATOM     17  C           0     137.801 134.537 143.760  0.00  0.00     0.093 C 
ATOM     18  C           0     136.279 134.352 143.987  0.00  0.00     0.209 C 
ATOM     19  H           0     136.483 129.927 146.396  0.00  0.00     0.178 HD
ATOM     20  H           0     133.487 130.880 144.596  0.00  0.00     0.178 HD
ATOM     21  H           0     136.167 132.382 141.935  0.00  0.00     0.180 HD
ENDROOT
BRANCH   6  22
ATOM     22  C           0     135.883 132.839 147.289  0.00  0.00     0.208 C 
BRANCH  22  23
ATOM     23  O           0     135.426 132.492 148.622  0.00  0.00    -0.302 OA
BRANCH  23  24
ATOM     24  C           0     134.556 131.479 148.793  0.00  0.00     0.358 C 
ATOM     25  N           0     133.231 131.725 148.819  0.00  0.00    -0.346 N 
ATOM     26  H           0     132.904 132.633 148.715  0.00  0.00     0.161 HD
ATOM     27  H           0     132.604 130.995 148.943  0.00  0.00     0.161 HD
ATOM     28  O           0     134.965 130.342 148.922  0.00  0.00    -0.239 OA
ENDBRANCH  23  24
ENDBRANCH  22  23
ENDBRANCH   6  22
BRANCH  18  29
ATOM     29  O           0     135.542 134.890 142.888  0.00  0.00    -0.362 OA
ATOM     30  H           0     134.606 134.828 143.122  0.00  0.00     0.213 HD
ENDBRANCH  18  29
BRANCH  18  31
ATOM     31  O           0     135.879 134.974 145.210  0.00  0.00    -0.362 OA
ATOM     32  H           0     136.112 134.363 145.923  0.00  0.00     0.213 HD
ENDBRANCH  18  31
TORSDOF 5
ENDMDL
MODEL 7
REMARK VINA RESULT:      -6.4      8.034     10.446
REMARK  5 active torsions:
REMARK  status: ('A' for Active; 'I' for Inactive)
REMARK    1  A    between atoms: C_6  and  C_7 
REMARK    2  A    between atoms: C_7  and  O_8 
REMARK    3  A    between atoms: O_8  and  C_9 
REMARK       I    between atoms: C_9  and  N_10 
REMARK    4  A    between atoms: C_23  and  O_24 
REMARK    5  A    between atoms: C_23  and  O_25 
ROOT
ATOM      1  N           0     128.811 134.276 132.056  0.00  0.00    -0.235 N 
ATOM      2  H           0     128.074 133.890 131.558  0.00  0.00     0.174 HD
ATOM      3  H           0     128.997 135.226 131.988  0.00  0.00     0.174 HD
ATOM      4  C           0     129.551 133.520 132.818  0.00  0.00     0.672 C 
ATOM      5  N           0     129.323 132.162 132.951  0.00  0.00    -0.218 N 
ATOM      6  C           0     130.458 131.298 133.263  0.00  0.00     0.151 C 
ATOM      7  C           0     131.255 131.787 134.457  0.00  0.00     0.180 C 
ATOM      8  N           0     130.525 131.453 135.698  0.00  0.00    -0.216 N 
ATOM      9  C           0     130.660 132.516 136.557  0.00  0.00     0.670 C 
ATOM     10  N           0     130.471 132.446 137.845  0.00  0.00    -0.235 N 
ATOM     11  H           0     130.218 131.602 138.252  0.00  0.00     0.174 HD
ATOM     12  H           0     130.584 133.236 138.395  0.00  0.00     0.174 HD
ATOM     13  C           0     131.413 133.298 134.521  0.00  0.00     0.217 C 
ATOM     14  N           0     131.020 133.662 135.892  0.00  0.00    -0.191 N 
ATOM     15  N           0     130.607 134.019 133.536  0.00  0.00    -0.183 N 
ATOM     16  C           0     131.210 135.361 133.444  0.00  0.00     0.150 C 
ATOM     17  C           0     132.733 135.103 133.544  0.00  0.00     0.093 C 
ATOM     18  C           0     132.865 133.735 134.260  0.00  0.00     0.209 C 
ATOM     19  H           0     128.433 131.793 132.841  0.00  0.00     0.178 HD
ATOM     20  H           0     130.039 130.632 135.874  0.00  0.00     0.178 HD
ATOM     21  H           0     131.017 134.558 136.263  0.00  0.00     0.180 HD
ENDROOT
BRANCH   6  22
ATOM     22  C           0     131.382 131.238 132.045  0.00  0.00     0.208 C 
BRANCH  22  23
ATOM     23  O           0     132.371 130.194 132.237  0.00  0.00    -0.302 OA
BRANCH  23  24
ATOM     24  C           0     131.996 128.900 132.220  0.00  0.00     0.358 C 
ATOM     25  N           0     131.928 128.204 133.373  0.00  0.00    -0.346 N 
ATOM     26  H           0     132.148 128.634 134.214  0.00  0.00     0.161 HD
ATOM     27  H           0     131.659 127.272 133.361  0.00  0.00     0.161 HD
ATOM     28  O           0     131.720 128.361 131.167  0.00  0.00    -0.239 OA
ENDBRANCH  23  24
ENDBRANCH  22  23
ENDBRANCH   6  22
BRANCH  18  29
ATOM     29  O           0     133.574 133.885 135.491  0.00  0.00    -0.362 OA
ATOM     30  H           0     133.624 133.006 135.893  0.00  0.00     0.213 HD
ENDBRANCH  18  29
BRANCH  18  31
ATOM     31  O           0     133.524 132.791 133.414  0.00  0.00    -0.362 OA
ATOM     32  H           0     134.425 133.116 133.282  0.00  0.00     0.213 HD
ENDBRANCH  18  31
TORSDOF 5
ENDMDL
MODEL 8
REMARK VINA RESULT:      -6.4      3.272      5.045
REMARK  5 active torsions:
REMARK  status: ('A' for Active; 'I' for Inactive)
REMARK    1  A    between atoms: C_6  and  C_7 
REMARK    2  A    between atoms: C_7  and  O_8 
REMARK    3  A    between atoms: O_8  and  C_9 
REMARK       I    between atoms: C_9  and  N_10 
REMARK    4  A    between atoms: C_23  and  O_24 
REMARK    5  A    between atoms: C_23  and  O_25 
ROOT
ATOM      1  N           0     138.380 134.205 149.179  0.00  0.00    -0.235 N 
ATOM      2  H           0     138.302 135.168 149.264  0.00  0.00     0.174 HD
ATOM      3  H           0     139.114 133.738 149.611  0.00  0.00     0.174 HD
ATOM      4  C           0     137.499 133.537 148.489  0.00  0.00     0.672 C 
ATOM      5  N           0     136.433 134.156 147.860  0.00  0.00    -0.218 N 
ATOM      6  C           0     135.882 133.534 146.659  0.00  0.00     0.151 C 
ATOM      7  C           0     135.556 132.067 146.859  0.00  0.00     0.180 C 
ATOM      8  N           0     134.298 131.948 147.625  0.00  0.00    -0.216 N 
ATOM      9  C           0     134.448 130.908 148.510  0.00  0.00     0.670 C 
ATOM     10  N           0     133.457 130.284 149.082  0.00  0.00    -0.235 N 
ATOM     11  H           0     132.543 130.549 148.891  0.00  0.00     0.174 HD
ATOM     12  H           0     133.633 129.556 149.698  0.00  0.00     0.174 HD
ATOM     13  C           0     136.571 131.314 147.704  0.00  0.00     0.217 C 
ATOM     14  N           0     135.771 130.606 148.717  0.00  0.00    -0.191 N 
ATOM     15  N           0     137.570 132.177 148.335  0.00  0.00    -0.183 N 
ATOM     16  C           0     138.679 131.281 148.710  0.00  0.00     0.150 C 
ATOM     17  C           0     138.775 130.278 147.535  0.00  0.00     0.093 C 
ATOM     18  C           0     137.375 130.300 146.871  0.00  0.00     0.209 C 
ATOM     19  H           0     136.062 134.982 148.207  0.00  0.00     0.178 HD
ATOM     20  H           0     133.509 132.503 147.523  0.00  0.00     0.178 HD
ATOM     21  H           0     136.118 130.024 149.410  0.00  0.00     0.180 HD
ENDROOT
BRANCH   6  22
ATOM     22  C           0     136.900 133.663 145.525  0.00  0.00     0.208 C 
BRANCH  22  23
ATOM     23  O           0     136.377 133.029 144.329  0.00  0.00    -0.302 OA
BRANCH  23  24
ATOM     24  C           0     137.085 133.063 143.184  0.00  0.00     0.358 C 
ATOM     25  N           0     136.597 133.714 142.109  0.00  0.00    -0.346 N 
ATOM     26  H           0     135.736 134.159 142.160  0.00  0.00     0.161 HD
ATOM     27  H           0     137.106 133.738 141.284  0.00  0.00     0.161 HD
ATOM     28  O           0     138.163 132.506 143.120  0.00  0.00    -0.239 OA
ENDBRANCH  23  24
ENDBRANCH  22  23
ENDBRANCH   6  22
BRANCH  18  29
ATOM     29  O           0     136.773 129.006 146.935  0.00  0.00    -0.362 OA
ATOM     30  H           0     136.067 129.059 147.595  0.00  0.00     0.213 HD
ENDBRANCH  18  29
BRANCH  18  31
ATOM     31  O           0     137.473 130.739 145.515  0.00  0.00    -0.362 OA
ATOM     32  H           0     138.416 130.840 145.322  0.00  0.00     0.213 HD
ENDBRANCH  18  31
TORSDOF 5
ENDMDL
MODEL 9
REMARK VINA RESULT:      -6.4      8.521     10.397
REMARK  5 active torsions:
REMARK  status: ('A' for Active; 'I' for Inactive)
REMARK    1  A    between atoms: C_6  and  C_7 
REMARK    2  A    between atoms: C_7  and  O_8 
REMARK    3  A    between atoms: O_8  and  C_9 
REMARK       I    between atoms: C_9  and  N_10 
REMARK    4  A    between atoms: C_23  and  O_24 
REMARK    5  A    between atoms: C_23  and  O_25 
ROOT
ATOM      1  N           0     134.475 133.488 132.291  0.00  0.00    -0.235 N 
ATOM      2  H           0     134.490 132.858 131.554  0.00  0.00     0.174 HD
ATOM      3  H           0     135.306 133.849 132.638  0.00  0.00     0.174 HD
ATOM      4  C           0     133.338 133.854 132.814  0.00  0.00     0.672 C 
ATOM      5  N           0     132.125 133.372 132.352  0.00  0.00    -0.218 N 
ATOM      6  C           0     131.010 133.292 133.290  0.00  0.00     0.151 C 
ATOM      7  C           0     130.777 134.594 134.032  0.00  0.00     0.180 C 
ATOM      8  N           0     130.091 135.548 133.136  0.00  0.00    -0.216 N 
ATOM      9  C           0     130.635 136.790 133.358  0.00  0.00     0.670 C 
ATOM     10  N           0     130.058 137.912 133.031  0.00  0.00    -0.235 N 
ATOM     11  H           0     129.188 137.902 132.602  0.00  0.00     0.174 HD
ATOM     12  H           0     130.499 138.756 133.218  0.00  0.00     0.174 HD
ATOM     13  C           0     132.052 135.318 134.432  0.00  0.00     0.217 C 
ATOM     14  N           0     131.862 136.703 133.968  0.00  0.00    -0.191 N 
ATOM     15  N           0     133.266 134.736 133.860  0.00  0.00    -0.183 N 
ATOM     16  C           0     134.373 135.255 134.684  0.00  0.00     0.150 C 
ATOM     17  C           0     133.809 135.258 136.125  0.00  0.00     0.093 C 
ATOM     18  C           0     132.269 135.303 135.955  0.00  0.00     0.209 C 
ATOM     19  H           0     132.020 133.095 131.428  0.00  0.00     0.178 HD
ATOM     20  H           0     129.385 135.337 132.505  0.00  0.00     0.178 HD
ATOM     21  H           0     132.494 137.430 134.077  0.00  0.00     0.180 HD
ENDROOT
BRANCH   6  22
ATOM     22  C           0     131.300 132.189 134.309  0.00  0.00     0.208 C 
BRANCH  22  23
ATOM     23  O           0     131.104 130.892 133.688  0.00  0.00    -0.302 OA
BRANCH  23  24
ATOM     24  C           0     132.158 130.083 133.469  0.00  0.00     0.358 C 
ATOM     25  N           0     132.005 128.745 133.527  0.00  0.00    -0.346 N 
ATOM     26  H           0     131.135 128.365 133.726  0.00  0.00     0.161 HD
ATOM     27  H           0     132.765 128.163 133.369  0.00  0.00     0.161 HD
ATOM     28  O           0     133.248 130.560 133.219  0.00  0.00    -0.239 OA
ENDBRANCH  23  24
ENDBRANCH  22  23
ENDBRANCH   6  22
BRANCH  18  29
ATOM     29  O           0     131.736 136.487 136.551  0.00  0.00    -0.362 OA
ATOM     30  H           0     131.295 136.981 135.846  0.00  0.00     0.213 HD
ENDBRANCH  18  29
BRANCH  18  31
ATOM     31  O           0     131.670 134.140 136.530  0.00  0.00    -0.362 OA
ATOM     32  H           0     131.077 133.771 135.861  0.00  0.00     0.213 HD
ENDBRANCH  18  31
TORSDOF 5
ENDMDL
