# created with PyMOL 2.3.4
@<TRIPOS>MOLECULE
ligand_out_0001
32 35 1                 
SMALL
USER_CHARGES
@<TRIPOS>ATOM
1	   N	134.820	137.002	142.894	N.3	1	UNK0	-0.235	
2	   N	134.308	134.790	142.293	N.pl3	1	UNK0	-0.200	
3	   N	135.079	135.277	144.472	N.3	1	UNK0	-0.211	
4	   C	134.737	135.740	143.207	C.3	1	UNK0	0.670	
5	   C	135.029	133.506	142.244	C.2	1	UNK0	0.244	
6	   C	135.152	132.968	143.673	C.3	1	UNK0	0.101	
7	   C	135.833	134.030	144.544	C.3	1	UNK0	0.119	
8	   C	137.253	134.244	144.004	C.2	1	UNK0	0.243	
9	   C	135.992	131.692	143.691	C.2	1	UNK0	0.177	
10	   C	137.959	132.886	144.083	C.3	1	UNK0	0.311	
11	   C	136.054	131.167	145.133	C.3	1	UNK0	0.134	
12	   C	136.769	132.236	145.981	C.2	1	UNK0	0.198	
13	   C	135.941	133.517	145.979	C.2	1	UNK0	0.182	
14	   C	136.834	129.852	145.173	C.2	1	UNK0	0.207	
15	   O	137.317	131.944	143.239	O.2	1	UNK0	-0.322	
16	   O	138.062	132.466	145.432	O.2	1	UNK0	-0.319	
17	   O	134.732	130.962	145.632	O.2	1	UNK0	-0.382	
18	   O	136.961	129.334	143.847	O.2	1	UNK0	-0.398	
19	   O	136.580	134.501	146.794	O.2	1	UNK0	-0.390	
20	   O	134.301	132.575	141.440	O.2	1	UNK0	-0.376	
21	   O	139.293	133.061	143.601	O.2	1	UNK0	-0.341	
22	   O	137.199	134.692	142.647	O.2	1	UNK0	-0.385	
23	   H	134.578	137.298	142.002	 H	1	UNK0	0.174	
24	   H	135.120	137.646	143.554	 H	1	UNK0	0.174	
25	   H	133.557	134.965	141.705	 H	1	UNK0	0.180	
26	   H	134.822	135.761	145.272	 H	1	UNK0	0.178	
27	   H	134.781	131.038	146.595	 H	1	UNK0	0.210	
28	   H	136.893	130.087	143.245	 H	1	UNK0	0.209	
29	   H	136.283	135.364	146.473	 H	1	UNK0	0.210	
30	   H	133.403	132.539	141.799	 H	1	UNK0	0.212	
31	   H	139.838	133.293	144.365	 H	1	UNK0	0.215	
32	   H	136.344	135.126	142.530	 H	1	UNK0	0.210	
@<TRIPOS>BOND
1 1 4 1
2 1 23 1
3 1 24 1
4 2 5 1
5 2 25 1
6 3 26 1
7 2 4 1
8 3 4 1
9 5 6 1
10 5 20 2
11 6 7 1
12 6 9 1
13 3 7 1
14 7 8 1
15 7 13 1
16 8 10 1
17 8 22 2
18 9 11 1
19 9 15 2
20 10 16 2
21 10 21 2
22 11 12 1
23 11 14 1
24 11 17 2
25 12 13 1
26 13 19 2
27 14 18 2
28 10 15 2
29 12 16 2
30 17 27 1
31 18 28 1
32 19 29 1
33 20 30 1
34 21 31 1
35 22 32 1
@<TRIPOS>SUBSTRUCTURE
1	UNK0	1	GROUP	1 ****	UNK
