MODEL 1
REMARK VINA RESULT:      -7.9      0.000      0.000
REMARK  5 active torsions:
REMARK  status: ('A' for Active; 'I' for Inactive)
REMARK    1  A    between atoms: C_6  and  C_7 
REMARK    2  A    between atoms: C_7  and  O_8 
REMARK    3  A    between atoms: O_8  and  C_9 
REMARK    4  A    between atoms: C_23  and  O_24 
REMARK    5  A    between atoms: C_23  and  O_25 
ROOT
ATOM      1  N           0     135.385 132.461 146.943  0.00  0.00    -0.235 N 
ATOM      2  H           0     135.715 132.644 147.837  0.00  0.00     0.174 HD
ATOM      3  H           0     134.724 131.764 146.804  0.00  0.00     0.174 HD
ATOM      4  C           0     135.823 133.156 145.932  0.00  0.00     0.672 C 
ATOM      5  N           0     136.759 134.164 146.081  0.00  0.00    -0.218 N 
ATOM      6  C           0     137.644 134.458 144.958  0.00  0.00     0.151 C 
ATOM      7  C           0     136.890 134.670 143.659  0.00  0.00     0.180 C 
ATOM      8  N           0     136.278 136.016 143.666  0.00  0.00    -0.216 N 
ATOM      9  C           0     135.031 135.907 143.100  0.00  0.00     0.670 C 
ATOM     10  N           0     134.358 136.912 142.613  0.00  0.00    -0.235 N 
ATOM     11  H           0     134.735 137.806 142.638  0.00  0.00     0.174 HD
ATOM     12  H           0     133.482 136.767 142.226  0.00  0.00     0.174 HD
ATOM     13  C           0     135.707 133.733 143.467  0.00  0.00     0.217 C 
ATOM     14  N           0     134.581 134.610 143.109  0.00  0.00    -0.191 N 
ATOM     15  N           0     135.390 132.932 144.651  0.00  0.00    -0.183 N 
ATOM     16  C           0     134.566 131.815 144.156  0.00  0.00     0.150 C 
ATOM     17  C           0     135.203 131.441 142.796  0.00  0.00     0.093 C 
ATOM     18  C           0     135.957 132.716 142.341  0.00  0.00     0.209 C 
ATOM     19  H           0     136.825 134.663 146.911  0.00  0.00     0.178 HD
ATOM     20  H           0     136.683 136.828 144.009  0.00  0.00     0.178 HD
ATOM     21  H           0     133.677 134.322 142.910  0.00  0.00     0.180 HD
ENDROOT
BRANCH   6  22
ATOM     22  C           0     138.617 133.292 144.777  0.00  0.00     0.206 C 
BRANCH  22  23
ATOM     23  O           0     139.174 132.922 146.066  0.00  0.00    -0.320 OA
BRANCH  23  24
ATOM     24  C           0     139.640 131.679 146.263  0.00  0.00     0.254 C 
ATOM     25  C           0     141.117 131.449 146.450  0.00  0.00     0.126 C 
ATOM     26  O           0     138.875 130.744 146.291  0.00  0.00    -0.266 OA
ENDBRANCH  23  24
ENDBRANCH  22  23
ENDBRANCH   6  22
BRANCH  18  27
ATOM     27  O           0     135.426 133.194 141.104  0.00  0.00    -0.362 OA
ATOM     28  H           0     136.125 133.099 140.444  0.00  0.00     0.213 HD
ENDBRANCH  18  27
BRANCH  18  29
ATOM     29  O           0     137.355 132.449 142.214  0.00  0.00    -0.362 OA
ATOM     30  H           0     137.442 131.510 141.997  0.00  0.00     0.213 HD
ENDBRANCH  18  29
TORSDOF 5
ENDMDL
MODEL 2
REMARK VINA RESULT:      -7.7      2.047      5.648
REMARK  5 active torsions:
REMARK  status: ('A' for Active; 'I' for Inactive)
REMARK    1  A    between atoms: C_6  and  C_7 
REMARK    2  A    between atoms: C_7  and  O_8 
REMARK    3  A    between atoms: O_8  and  C_9 
REMARK    4  A    between atoms: C_23  and  O_24 
REMARK    5  A    between atoms: C_23  and  O_25 
ROOT
ATOM      1  N           0     134.940 136.712 143.223  0.00  0.00    -0.235 N 
ATOM      2  H           0     134.134 137.167 142.932  0.00  0.00     0.174 HD
ATOM      3  H           0     135.735 137.224 143.438  0.00  0.00     0.174 HD
ATOM      4  C           0     134.952 135.413 143.331  0.00  0.00     0.672 C 
ATOM      5  N           0     133.840 134.640 143.043  0.00  0.00    -0.218 N 
ATOM      6  C           0     134.052 133.272 142.579  0.00  0.00     0.151 C 
ATOM      7  C           0     134.984 132.485 143.481  0.00  0.00     0.180 C 
ATOM      8  N           0     134.249 132.072 144.696  0.00  0.00    -0.216 N 
ATOM      9  C           0     135.104 132.207 145.762  0.00  0.00     0.670 C 
ATOM     10  N           0     134.941 131.611 146.911  0.00  0.00    -0.235 N 
ATOM     11  H           0     134.177 131.030 147.052  0.00  0.00     0.174 HD
ATOM     12  H           0     135.583 131.748 147.624  0.00  0.00     0.174 HD
ATOM     13  C           0     136.155 133.292 144.020  0.00  0.00     0.217 C 
ATOM     14  N           0     136.151 133.044 145.471  0.00  0.00    -0.191 N 
ATOM     15  N           0     136.067 134.725 143.733  0.00  0.00    -0.183 N 
ATOM     16  C           0     137.435 135.243 143.911  0.00  0.00     0.150 C 
ATOM     17  C           0     138.344 134.129 143.339  0.00  0.00     0.093 C 
ATOM     18  C           0     137.493 132.836 143.414  0.00  0.00     0.209 C 
ATOM     19  H           0     132.944 134.998 143.147  0.00  0.00     0.178 HD
ATOM     20  H           0     133.330 131.762 144.733  0.00  0.00     0.178 HD
ATOM     21  H           0     136.783 133.408 146.110  0.00  0.00     0.180 HD
ENDROOT
BRANCH   6  22
ATOM     22  C           0     134.650 133.315 141.171  0.00  0.00     0.206 C 
BRANCH  22  23
ATOM     23  O           0     133.599 133.582 140.207  0.00  0.00    -0.320 OA
BRANCH  23  24
ATOM     24  C           0     133.464 134.810 139.682  0.00  0.00     0.254 C 
ATOM     25  C           0     133.612 135.016 138.197  0.00  0.00     0.126 C 
ATOM     26  O           0     133.226 135.751 140.402  0.00  0.00    -0.266 OA
ENDBRANCH  23  24
ENDBRANCH  22  23
ENDBRANCH   6  22
BRANCH  18  27
ATOM     27  O           0     138.125 131.873 144.258  0.00  0.00    -0.362 OA
ATOM     28  H           0     139.070 132.075 144.256  0.00  0.00     0.213 HD
ENDBRANCH  18  27
BRANCH  18  29
ATOM     29  O           0     137.289 132.298 142.106  0.00  0.00    -0.362 OA
ATOM     30  H           0     138.165 132.145 141.727  0.00  0.00     0.213 HD
ENDBRANCH  18  29
TORSDOF 5
ENDMDL
MODEL 3
REMARK VINA RESULT:      -6.9      3.174      4.635
REMARK  5 active torsions:
REMARK  status: ('A' for Active; 'I' for Inactive)
REMARK    1  A    between atoms: C_6  and  C_7 
REMARK    2  A    between atoms: C_7  and  O_8 
REMARK    3  A    between atoms: O_8  and  C_9 
REMARK    4  A    between atoms: C_23  and  O_24 
REMARK    5  A    between atoms: C_23  and  O_25 
ROOT
ATOM      1  N           0     139.098 130.471 145.917  0.00  0.00    -0.235 N 
ATOM      2  H           0     139.278 129.626 146.357  0.00  0.00     0.174 HD
ATOM      3  H           0     139.826 130.982 145.531  0.00  0.00     0.174 HD
ATOM      4  C           0     137.875 130.917 145.839  0.00  0.00     0.672 C 
ATOM      5  N           0     136.802 130.221 146.368  0.00  0.00    -0.218 N 
ATOM      6  C           0     135.637 130.981 146.811  0.00  0.00     0.151 C 
ATOM      7  C           0     135.131 131.945 145.755  0.00  0.00     0.180 C 
ATOM      8  N           0     134.382 131.191 144.727  0.00  0.00    -0.216 N 
ATOM      9  C           0     134.697 131.731 143.504  0.00  0.00     0.670 C 
ATOM     10  N           0     133.976 131.578 142.428  0.00  0.00    -0.235 N 
ATOM     11  H           0     133.160 131.054 142.462  0.00  0.00     0.174 HD
ATOM     12  H           0     134.255 131.988 141.596  0.00  0.00     0.174 HD
ATOM     13  C           0     136.232 132.638 144.967  0.00  0.00     0.217 C 
ATOM     14  N           0     135.863 132.453 143.554  0.00  0.00    -0.191 N 
ATOM     15  N           0     137.571 132.108 145.232  0.00  0.00    -0.183 N 
ATOM     16  C           0     138.502 133.150 144.764  0.00  0.00     0.150 C 
ATOM     17  C           0     137.821 134.480 145.163  0.00  0.00     0.093 C 
ATOM     18  C           0     136.315 134.139 145.294  0.00  0.00     0.209 C 
ATOM     19  H           0     136.824 129.254 146.442  0.00  0.00     0.178 HD
ATOM     20  H           0     133.777 130.449 144.888  0.00  0.00     0.178 HD
ATOM     21  H           0     136.357 132.787 142.790  0.00  0.00     0.180 HD
ENDROOT
BRANCH   6  22
ATOM     22  C           0     136.011 131.775 148.063  0.00  0.00     0.206 C 
BRANCH  22  23
ATOM     23  O           0     134.816 132.371 148.634  0.00  0.00    -0.320 OA
BRANCH  23  24
ATOM     24  C           0     133.986 131.627 149.381  0.00  0.00     0.254 C 
ATOM     25  C           0     134.539 130.545 150.273  0.00  0.00     0.126 C 
ATOM     26  O           0     132.795 131.824 149.339  0.00  0.00    -0.266 OA
ENDBRANCH  23  24
ENDBRANCH  22  23
ENDBRANCH   6  22
BRANCH  18  27
ATOM     27  O           0     135.548 134.900 144.361  0.00  0.00    -0.362 OA
ATOM     28  H           0     134.674 135.026 144.754  0.00  0.00     0.213 HD
ENDBRANCH  18  27
BRANCH  18  29
ATOM     29  O           0     135.864 134.381 146.629  0.00  0.00    -0.362 OA
ATOM     30  H           0     134.976 134.004 146.696  0.00  0.00     0.213 HD
ENDBRANCH  18  29
TORSDOF 5
ENDMDL
MODEL 4
REMARK VINA RESULT:      -6.7      2.658      4.928
REMARK  5 active torsions:
REMARK  status: ('A' for Active; 'I' for Inactive)
REMARK    1  A    between atoms: C_6  and  C_7 
REMARK    2  A    between atoms: C_7  and  O_8 
REMARK    3  A    between atoms: O_8  and  C_9 
REMARK    4  A    between atoms: C_23  and  O_24 
REMARK    5  A    between atoms: C_23  and  O_25 
ROOT
ATOM      1  N           0     139.705 130.601 146.061  0.00  0.00    -0.235 N 
ATOM      2  H           0     140.460 130.749 145.470  0.00  0.00     0.174 HD
ATOM      3  H           0     139.739 129.893 146.723  0.00  0.00     0.174 HD
ATOM      4  C           0     138.648 131.358 145.969  0.00  0.00     0.672 C 
ATOM      5  N           0     138.554 132.384 145.045  0.00  0.00    -0.218 N 
ATOM      6  C           0     137.229 132.758 144.560  0.00  0.00     0.151 C 
ATOM      7  C           0     136.244 133.012 145.685  0.00  0.00     0.180 C 
ATOM      8  N           0     136.517 134.338 146.280  0.00  0.00    -0.216 N 
ATOM      9  C           0     136.362 134.222 147.640  0.00  0.00     0.670 C 
ATOM     10  N           0     136.167 135.230 148.443  0.00  0.00    -0.235 N 
ATOM     11  H           0     136.123 136.132 148.088  0.00  0.00     0.174 HD
ATOM     12  H           0     136.064 135.078 149.395  0.00  0.00     0.174 HD
ATOM     13  C           0     136.379 132.052 146.857  0.00  0.00     0.217 C 
ATOM     14  N           0     136.438 132.914 148.049  0.00  0.00    -0.191 N 
ATOM     15  N           0     137.555 131.185 146.778  0.00  0.00    -0.183 N 
ATOM     16  C           0     137.280 130.070 147.702  0.00  0.00     0.150 C 
ATOM     17  C           0     135.771 129.783 147.518  0.00  0.00     0.093 C 
ATOM     18  C           0     135.175 131.100 146.959  0.00  0.00     0.209 C 
ATOM     19  H           0     139.349 132.843 144.729  0.00  0.00     0.178 HD
ATOM     20  H           0     136.762 135.144 145.797  0.00  0.00     0.178 HD
ATOM     21  H           0     136.515 132.609 148.966  0.00  0.00     0.180 HD
ENDROOT
BRANCH   6  22
ATOM     22  C           0     136.689 131.632 143.678  0.00  0.00     0.206 C 
BRANCH  22  23
ATOM     23  O           0     135.967 132.200 142.554  0.00  0.00    -0.320 OA
BRANCH  23  24
ATOM     24  C           0     134.627 132.145 142.520  0.00  0.00     0.254 C 
ATOM     25  C           0     133.823 133.412 142.384  0.00  0.00     0.126 C 
ATOM     26  O           0     134.064 131.079 142.599  0.00  0.00    -0.266 OA
ENDBRANCH  23  24
ENDBRANCH  22  23
ENDBRANCH   6  22
BRANCH  18  27
ATOM     27  O           0     134.194 131.623 147.856  0.00  0.00    -0.362 OA
ATOM     28  H           0     134.495 132.505 148.116  0.00  0.00     0.213 HD
ENDBRANCH  18  27
BRANCH  18  29
ATOM     29  O           0     134.604 130.880 145.668  0.00  0.00    -0.362 OA
ATOM     30  H           0     134.014 131.626 145.493  0.00  0.00     0.213 HD
ENDBRANCH  18  29
TORSDOF 5
ENDMDL
MODEL 5
REMARK VINA RESULT:      -6.5      2.190      5.089
REMARK  5 active torsions:
REMARK  status: ('A' for Active; 'I' for Inactive)
REMARK    1  A    between atoms: C_6  and  C_7 
REMARK    2  A    between atoms: C_7  and  O_8 
REMARK    3  A    between atoms: O_8  and  C_9 
REMARK    4  A    between atoms: C_23  and  O_24 
REMARK    5  A    between atoms: C_23  and  O_25 
ROOT
ATOM      1  N           0     137.635 135.473 148.296  0.00  0.00    -0.235 N 
ATOM      2  H           0     137.229 136.353 148.256  0.00  0.00     0.174 HD
ATOM      3  H           0     138.409 135.322 148.861  0.00  0.00     0.174 HD
ATOM      4  C           0     137.137 134.492 147.597  0.00  0.00     0.672 C 
ATOM      5  N           0     136.030 134.656 146.782  0.00  0.00    -0.218 N 
ATOM      6  C           0     135.900 133.795 145.611  0.00  0.00     0.151 C 
ATOM      7  C           0     136.055 132.324 145.946  0.00  0.00     0.180 C 
ATOM      8  N           0     134.810 131.835 146.576  0.00  0.00    -0.216 N 
ATOM      9  C           0     135.167 130.980 147.590  0.00  0.00     0.670 C 
ATOM     10  N           0     134.367 130.096 148.118  0.00  0.00    -0.235 N 
ATOM     11  H           0     133.455 130.013 147.795  0.00  0.00     0.174 HD
ATOM     12  H           0     134.682 129.522 148.832  0.00  0.00     0.174 HD
ATOM     13  C           0     137.128 132.033 146.985  0.00  0.00     0.217 C 
ATOM     14  N           0     136.469 131.170 147.979  0.00  0.00    -0.191 N 
ATOM     15  N           0     137.679 133.233 147.616  0.00  0.00    -0.183 N 
ATOM     16  C           0     138.955 132.806 148.216  0.00  0.00     0.150 C 
ATOM     17  C           0     139.550 131.815 147.188  0.00  0.00     0.093 C 
ATOM     18  C           0     138.335 131.302 146.374  0.00  0.00     0.209 C 
ATOM     19  H           0     135.358 135.326 146.985  0.00  0.00     0.178 HD
ATOM     20  H           0     133.905 132.074 146.319  0.00  0.00     0.178 HD
ATOM     21  H           0     136.886 130.797 148.771  0.00  0.00     0.180 HD
ENDROOT
BRANCH   6  22
ATOM     22  C           0     136.971 134.183 144.591  0.00  0.00     0.206 C 
BRANCH  22  23
ATOM     23  O           0     136.382 134.231 143.265  0.00  0.00    -0.320 OA
BRANCH  23  24
ATOM     24  C           0     136.281 133.110 142.534  0.00  0.00     0.254 C 
ATOM     25  C           0     135.113 132.920 141.602  0.00  0.00     0.126 C 
ATOM     26  O           0     137.127 132.251 142.625  0.00  0.00    -0.266 OA
ENDBRANCH  23  24
ENDBRANCH  22  23
ENDBRANCH   6  22
BRANCH  18  27
ATOM     27  O           0     138.196 129.888 146.524  0.00  0.00    -0.362 OA
ATOM     28  H           0     139.057 129.550 146.804  0.00  0.00     0.213 HD
ENDBRANCH  18  27
BRANCH  18  29
ATOM     29  O           0     138.479 131.646 144.995  0.00  0.00    -0.362 OA
ATOM     30  H           0     137.700 131.300 144.538  0.00  0.00     0.213 HD
ENDBRANCH  18  29
TORSDOF 5
ENDMDL
MODEL 6
REMARK VINA RESULT:      -6.4      2.701      4.032
REMARK  5 active torsions:
REMARK  status: ('A' for Active; 'I' for Inactive)
REMARK    1  A    between atoms: C_6  and  C_7 
REMARK    2  A    between atoms: C_7  and  O_8 
REMARK    3  A    between atoms: O_8  and  C_9 
REMARK    4  A    between atoms: C_23  and  O_24 
REMARK    5  A    between atoms: C_23  and  O_25 
ROOT
ATOM      1  N           0     139.009 130.495 145.907  0.00  0.00    -0.235 N 
ATOM      2  H           0     139.166 129.660 146.375  0.00  0.00     0.174 HD
ATOM      3  H           0     139.752 130.975 145.509  0.00  0.00     0.174 HD
ATOM      4  C           0     137.798 130.967 145.807  0.00  0.00     0.672 C 
ATOM      5  N           0     136.706 130.315 146.351  0.00  0.00    -0.218 N 
ATOM      6  C           0     135.557 131.117 146.762  0.00  0.00     0.151 C 
ATOM      7  C           0     135.080 132.058 145.672  0.00  0.00     0.180 C 
ATOM      8  N           0     134.319 131.290 144.664  0.00  0.00    -0.216 N 
ATOM      9  C           0     134.653 131.782 143.427  0.00  0.00     0.670 C 
ATOM     10  N           0     133.935 131.611 142.352  0.00  0.00    -0.235 N 
ATOM     11  H           0     133.107 131.108 142.397  0.00  0.00     0.174 HD
ATOM     12  H           0     134.229 131.986 141.508  0.00  0.00     0.174 HD
ATOM     13  C           0     136.203 132.698 144.869  0.00  0.00     0.217 C 
ATOM     14  N           0     135.837 132.476 143.461  0.00  0.00    -0.191 N 
ATOM     15  N           0     137.526 132.145 145.159  0.00  0.00    -0.183 N 
ATOM     16  C           0     138.485 133.148 144.664  0.00  0.00     0.150 C 
ATOM     17  C           0     137.835 134.507 145.014  0.00  0.00     0.093 C 
ATOM     18  C           0     136.321 134.206 145.148  0.00  0.00     0.209 C 
ATOM     19  H           0     136.704 129.351 146.457  0.00  0.00     0.178 HD
ATOM     20  H           0     133.695 130.568 144.845  0.00  0.00     0.178 HD
ATOM     21  H           0     136.343 132.773 142.689  0.00  0.00     0.180 HD
ENDROOT
BRANCH   6  22
ATOM     22  C           0     135.943 131.942 147.990  0.00  0.00     0.206 C 
BRANCH  22  23
ATOM     23  O           0     136.316 131.052 149.074  0.00  0.00    -0.320 OA
BRANCH  23  24
ATOM     24  C           0     137.560 131.087 149.575  0.00  0.00     0.254 C 
ATOM     25  C           0     137.876 131.979 150.747  0.00  0.00     0.126 C 
ATOM     26  O           0     138.428 130.404 149.085  0.00  0.00    -0.266 OA
ENDBRANCH  23  24
ENDBRANCH  22  23
ENDBRANCH   6  22
BRANCH  18  27
ATOM     27  O           0     135.577 134.955 144.186  0.00  0.00    -0.362 OA
ATOM     28  H           0     134.685 134.583 144.170  0.00  0.00     0.213 HD
ENDBRANCH  18  27
BRANCH  18  29
ATOM     29  O           0     135.868 134.503 146.470  0.00  0.00    -0.362 OA
ATOM     30  H           0     136.388 135.258 146.780  0.00  0.00     0.213 HD
ENDBRANCH  18  29
TORSDOF 5
ENDMDL
MODEL 7
REMARK VINA RESULT:      -6.3      1.930      5.207
REMARK  5 active torsions:
REMARK  status: ('A' for Active; 'I' for Inactive)
REMARK    1  A    between atoms: C_6  and  C_7 
REMARK    2  A    between atoms: C_7  and  O_8 
REMARK    3  A    between atoms: O_8  and  C_9 
REMARK    4  A    between atoms: C_23  and  O_24 
REMARK    5  A    between atoms: C_23  and  O_25 
ROOT
ATOM      1  N           0     138.168 134.746 142.914  0.00  0.00    -0.235 N 
ATOM      2  H           0     137.780 135.353 142.264  0.00  0.00     0.174 HD
ATOM      3  H           0     139.052 134.376 142.763  0.00  0.00     0.174 HD
ATOM      4  C           0     137.505 134.432 143.991  0.00  0.00     0.672 C 
ATOM      5  N           0     136.244 134.940 144.254  0.00  0.00    -0.218 N 
ATOM      6  C           0     135.331 134.138 145.063  0.00  0.00     0.151 C 
ATOM      7  C           0     135.959 133.670 146.362  0.00  0.00     0.180 C 
ATOM      8  N           0     135.988 134.796 147.320  0.00  0.00    -0.216 N 
ATOM      9  C           0     137.184 134.736 147.994  0.00  0.00     0.670 C 
ATOM     10  N           0     137.411 135.322 149.136  0.00  0.00    -0.235 N 
ATOM     11  H           0     136.711 135.842 149.563  0.00  0.00     0.174 HD
ATOM     12  H           0     138.279 135.239 149.559  0.00  0.00     0.174 HD
ATOM     13  C           0     137.418 133.261 146.236  0.00  0.00     0.217 C 
ATOM     14  N           0     138.110 133.982 147.317  0.00  0.00    -0.191 N 
ATOM     15  N           0     138.009 133.575 144.934  0.00  0.00    -0.183 N 
ATOM     16  C           0     139.214 132.733 144.840  0.00  0.00     0.150 C 
ATOM     17  C           0     138.797 131.392 145.488  0.00  0.00     0.093 C 
ATOM     18  C           0     137.607 131.745 146.415  0.00  0.00     0.209 C 
ATOM     19  H           0     135.975 135.806 143.909  0.00  0.00     0.178 HD
ATOM     20  H           0     135.290 135.457 147.450  0.00  0.00     0.178 HD
ATOM     21  H           0     139.057 133.931 147.518  0.00  0.00     0.180 HD
ENDROOT
BRANCH   6  22
ATOM     22  C           0     134.901 132.912 144.255  0.00  0.00     0.206 C 
BRANCH  22  23
ATOM     23  O           0     134.000 133.323 143.195  0.00  0.00    -0.320 OA
BRANCH  23  24
ATOM     24  C           0     134.441 133.398 141.929  0.00  0.00     0.254 C 
ATOM     25  C           0     133.537 133.924 140.845  0.00  0.00     0.126 C 
ATOM     26  O           0     135.564 133.042 141.659  0.00  0.00    -0.266 OA
ENDBRANCH  23  24
ENDBRANCH  22  23
ENDBRANCH   6  22
BRANCH  18  27
ATOM     27  O           0     137.923 131.434 147.772  0.00  0.00    -0.362 OA
ATOM     28  H           0     138.345 130.565 147.769  0.00  0.00     0.213 HD
ENDBRANCH  18  27
BRANCH  18  29
ATOM     29  O           0     136.430 131.046 146.003  0.00  0.00    -0.362 OA
ATOM     30  H           0     136.726 130.240 145.558  0.00  0.00     0.213 HD
ENDBRANCH  18  29
TORSDOF 5
ENDMDL
MODEL 8
REMARK VINA RESULT:      -6.2      3.000      4.632
REMARK  5 active torsions:
REMARK  status: ('A' for Active; 'I' for Inactive)
REMARK    1  A    between atoms: C_6  and  C_7 
REMARK    2  A    between atoms: C_7  and  O_8 
REMARK    3  A    between atoms: O_8  and  C_9 
REMARK    4  A    between atoms: C_23  and  O_24 
REMARK    5  A    between atoms: C_23  and  O_25 
ROOT
ATOM      1  N           0     139.042 130.501 145.957  0.00  0.00    -0.235 N 
ATOM      2  H           0     139.103 129.649 145.496  0.00  0.00     0.174 HD
ATOM      3  H           0     139.799 130.832 146.464  0.00  0.00     0.174 HD
ATOM      4  C           0     137.946 131.203 145.887  0.00  0.00     0.672 C 
ATOM      5  N           0     136.842 130.776 145.170  0.00  0.00    -0.218 N 
ATOM      6  C           0     135.522 131.219 145.605  0.00  0.00     0.151 C 
ATOM      7  C           0     135.441 132.722 145.791  0.00  0.00     0.180 C 
ATOM      8  N           0     135.339 133.371 144.467  0.00  0.00    -0.216 N 
ATOM      9  C           0     136.109 134.508 144.502  0.00  0.00     0.670 C 
ATOM     10  N           0     135.983 135.504 143.670  0.00  0.00    -0.235 N 
ATOM     11  H           0     135.311 135.470 142.971  0.00  0.00     0.174 HD
ATOM     12  H           0     136.559 136.279 143.750  0.00  0.00     0.174 HD
ATOM     13  C           0     136.688 133.340 146.405  0.00  0.00     0.217 C 
ATOM     14  N           0     137.029 134.466 145.520  0.00  0.00    -0.191 N 
ATOM     15  N           0     137.811 132.409 146.523  0.00  0.00    -0.183 N 
ATOM     16  C           0     138.721 133.019 147.509  0.00  0.00     0.150 C 
ATOM     17  C           0     137.779 133.641 148.567  0.00  0.00     0.093 C 
ATOM     18  C           0     136.432 133.855 147.832  0.00  0.00     0.209 C 
ATOM     19  H           0     136.944 130.197 144.397  0.00  0.00     0.178 HD
ATOM     20  H           0     134.822 133.052 143.710  0.00  0.00     0.178 HD
ATOM     21  H           0     137.773 135.077 145.638  0.00  0.00     0.180 HD
ENDROOT
BRANCH   6  22
ATOM     22  C           0     135.185 130.540 146.934  0.00  0.00     0.206 C 
BRANCH  22  23
ATOM     23  O           0     135.621 129.156 146.895  0.00  0.00    -0.320 OA
BRANCH  23  24
ATOM     24  C           0     136.232 128.614 147.959  0.00  0.00     0.254 C 
ATOM     25  C           0     135.415 128.084 149.109  0.00  0.00     0.126 C 
ATOM     26  O           0     137.438 128.552 147.997  0.00  0.00    -0.266 OA
ENDBRANCH  23  24
ENDBRANCH  22  23
ENDBRANCH   6  22
BRANCH  18  27
ATOM     27  O           0     136.089 135.241 147.812  0.00  0.00    -0.362 OA
ATOM     28  H           0     136.916 135.733 147.722  0.00  0.00     0.213 HD
ENDBRANCH  18  27
BRANCH  18  29
ATOM     29  O           0     135.397 133.092 148.456  0.00  0.00    -0.362 OA
ATOM     30  H           0     135.777 132.711 149.259  0.00  0.00     0.213 HD
ENDBRANCH  18  29
TORSDOF 5
ENDMDL
MODEL 9
REMARK VINA RESULT:      -6.2      3.114      6.047
REMARK  5 active torsions:
REMARK  status: ('A' for Active; 'I' for Inactive)
REMARK    1  A    between atoms: C_6  and  C_7 
REMARK    2  A    between atoms: C_7  and  O_8 
REMARK    3  A    between atoms: O_8  and  C_9 
REMARK    4  A    between atoms: C_23  and  O_24 
REMARK    5  A    between atoms: C_23  and  O_25 
ROOT
ATOM      1  N           0     135.885 133.774 148.760  0.00  0.00    -0.235 N 
ATOM      2  H           0     134.987 134.058 148.992  0.00  0.00     0.174 HD
ATOM      3  H           0     136.643 134.337 148.980  0.00  0.00     0.174 HD
ATOM      4  C           0     136.073 132.632 148.159  0.00  0.00     0.672 C 
ATOM      5  N           0     135.024 131.791 147.830  0.00  0.00    -0.218 N 
ATOM      6  C           0     135.180 130.909 146.678  0.00  0.00     0.151 C 
ATOM      7  C           0     136.464 130.104 146.727  0.00  0.00     0.180 C 
ATOM      8  N           0     136.306 128.993 147.689  0.00  0.00    -0.216 N 
ATOM      9  C           0     137.488 128.868 148.377  0.00  0.00     0.670 C 
ATOM     10  N           0     137.846 127.798 149.030  0.00  0.00    -0.235 N 
ATOM     11  H           0     137.261 127.024 149.051  0.00  0.00     0.174 HD
ATOM     12  H           0     138.696 127.775 149.495  0.00  0.00     0.174 HD
ATOM     13  C           0     137.662 130.877 147.257  0.00  0.00     0.217 C 
ATOM     14  N           0     138.247 130.009 148.291  0.00  0.00    -0.191 N 
ATOM     15  N           0     137.321 132.190 147.807  0.00  0.00    -0.183 N 
ATOM     16  C           0     138.590 132.940 147.840  0.00  0.00     0.150 C 
ATOM     17  C           0     139.317 132.522 146.539  0.00  0.00     0.093 C 
ATOM     18  C           0     138.701 131.152 146.156  0.00  0.00     0.209 C 
ATOM     19  H           0     134.206 131.788 148.353  0.00  0.00     0.178 HD
ATOM     20  H           0     135.510 128.451 147.812  0.00  0.00     0.178 HD
ATOM     21  H           0     139.035 130.207 148.820  0.00  0.00     0.180 HD
ENDROOT
BRANCH   6  22
ATOM     22  C           0     135.178 131.756 145.404  0.00  0.00     0.206 C 
BRANCH  22  23
ATOM     23  O           0     135.168 130.884 144.243  0.00  0.00    -0.320 OA
BRANCH  23  24
ATOM     24  C           0     134.886 131.384 143.030  0.00  0.00     0.254 C 
ATOM     25  C           0     135.816 132.383 142.392  0.00  0.00     0.126 C 
ATOM     26  O           0     133.885 131.033 142.450  0.00  0.00    -0.266 OA
ENDBRANCH  23  24
ENDBRANCH  22  23
ENDBRANCH   6  22
BRANCH  18  27
ATOM     27  O           0     139.707 130.138 146.149  0.00  0.00    -0.362 OA
ATOM     28  H           0     140.423 130.459 145.584  0.00  0.00     0.213 HD
ENDBRANCH  18  27
BRANCH  18  29
ATOM     29  O           0     138.063 131.233 144.880  0.00  0.00    -0.362 OA
ATOM     30  H           0     137.716 130.351 144.686  0.00  0.00     0.213 HD
ENDBRANCH  18  29
TORSDOF 5
ENDMDL
