MODEL 1
REMARK VINA RESULT:      -7.3      0.000      0.000
REMARK  7 active torsions:
REMARK  status: ('A' for Active; 'I' for Inactive)
REMARK    1  A    between atoms: C_6  and  C_7 
REMARK    2  A    between atoms: C_7  and  O_8 
REMARK    3  A    between atoms: O_8  and  C_9 
REMARK       I    between atoms: C_9  and  N_10 
REMARK    4  A    between atoms: C_22  and  O_23 
REMARK    5  A    between atoms: O_23  and  S_24 
REMARK    6  A    between atoms: C_28  and  O_29 
REMARK    7  A    between atoms: C_28  and  O_30 
ROOT
ATOM      1  N           0     134.361 132.254 149.254  0.00  0.00    -0.235 N 
ATOM      2  H           0     133.847 131.975 150.028  0.00  0.00     0.174 HD
ATOM      3  H           0     134.346 133.182 148.971  0.00  0.00     0.174 HD
ATOM      4  C           0     135.077 131.384 148.598  0.00  0.00     0.672 C 
ATOM      5  N           0     135.136 130.052 148.966  0.00  0.00    -0.218 N 
ATOM      6  C           0     135.392 129.058 147.927  0.00  0.00     0.151 C 
ATOM      7  C           0     136.607 129.394 147.084  0.00  0.00     0.180 C 
ATOM      8  N           0     137.832 129.070 147.845  0.00  0.00    -0.216 N 
ATOM      9  C           0     138.748 130.064 147.600  0.00  0.00     0.670 C 
ATOM     10  N           0     140.031 129.941 147.796  0.00  0.00    -0.235 N 
ATOM     11  H           0     140.392 129.108 148.136  0.00  0.00     0.174 HD
ATOM     12  H           0     140.624 130.685 147.602  0.00  0.00     0.174 HD
ATOM     13  C           0     136.754 130.875 146.769  0.00  0.00     0.220 C 
ATOM     14  N           0     138.145 131.201 147.123  0.00  0.00    -0.191 N 
ATOM     15  N           0     135.814 131.729 147.496  0.00  0.00    -0.180 N 
ATOM     16  C           0     135.794 133.004 146.756  0.00  0.00     0.183 C 
ATOM     17  C           0     135.870 132.585 145.269  0.00  0.00     0.227 C 
ATOM     18  C           0     136.510 131.173 145.281  0.00  0.00     0.238 C 
ATOM     19  H           0     135.010 129.784 149.890  0.00  0.00     0.178 HD
ATOM     20  H           0     137.966 128.295 148.414  0.00  0.00     0.178 HD
ATOM     21  H           0     138.566 132.070 147.032  0.00  0.00     0.180 HD
ENDROOT
BRANCH   6  22
ATOM     22  C           0     134.168 128.971 147.014  0.00  0.00     0.208 C 
BRANCH  22  23
ATOM     23  O           0     133.414 127.770 147.328  0.00  0.00    -0.302 OA
BRANCH  23  24
ATOM     24  C           0     132.151 127.868 147.784  0.00  0.00     0.358 C 
ATOM     25  N           0     131.803 128.891 148.591  0.00  0.00    -0.346 N 
ATOM     26  H           0     132.463 129.555 148.842  0.00  0.00     0.161 HD
ATOM     27  H           0     130.893 128.962 148.919  0.00  0.00     0.161 HD
ATOM     28  O           0     131.325 127.035 147.468  0.00  0.00    -0.239 OA
ENDBRANCH  23  24
ENDBRANCH  22  23
ENDBRANCH   6  22
BRANCH  18  29
ATOM     29  O           0     137.743 131.179 144.559  0.00  0.00    -0.360 OA
ATOM     30  H           0     138.182 132.017 144.760  0.00  0.00     0.213 HD
ENDBRANCH  18  29
BRANCH  18  31
ATOM     31  O           0     135.609 130.214 144.722  0.00  0.00    -0.360 OA
ATOM     32  H           0     135.899 129.345 145.033  0.00  0.00     0.213 HD
ENDBRANCH  18  31
BRANCH  17  33
ATOM     33  O           0     134.561 132.536 144.699  0.00  0.00    -0.263 OA
BRANCH  33  34
ATOM     34  S           0     134.644 133.225 143.344  0.00  0.00     0.262 S 
ATOM     35  O           0     133.321 133.143 142.705  0.00  0.00    -0.199 OA
ATOM     36  C           0     135.172 134.938 143.622  0.00  0.00     0.194 C 
ATOM     37  O           0     135.594 132.476 142.506  0.00  0.00    -0.199 OA
ENDBRANCH  33  34
ENDBRANCH  17  33
TORSDOF 7
ENDMDL
MODEL 2
REMARK VINA RESULT:      -7.3      1.523      1.716
REMARK  7 active torsions:
REMARK  status: ('A' for Active; 'I' for Inactive)
REMARK    1  A    between atoms: C_6  and  C_7 
REMARK    2  A    between atoms: C_7  and  O_8 
REMARK    3  A    between atoms: O_8  and  C_9 
REMARK       I    between atoms: C_9  and  N_10 
REMARK    4  A    between atoms: C_22  and  O_23 
REMARK    5  A    between atoms: O_23  and  S_24 
REMARK    6  A    between atoms: C_28  and  O_29 
REMARK    7  A    between atoms: C_28  and  O_30 
ROOT
ATOM      1  N           0     135.119 132.810 148.555  0.00  0.00    -0.235 N 
ATOM      2  H           0     134.802 132.428 149.388  0.00  0.00     0.174 HD
ATOM      3  H           0     134.841 133.703 148.295  0.00  0.00     0.174 HD
ATOM      4  C           0     135.926 132.129 147.790  0.00  0.00     0.672 C 
ATOM      5  N           0     136.356 130.857 148.122  0.00  0.00    -0.218 N 
ATOM      6  C           0     136.697 129.938 147.039  0.00  0.00     0.151 C 
ATOM      7  C           0     137.664 130.544 146.041  0.00  0.00     0.180 C 
ATOM      8  N           0     139.025 130.538 146.618  0.00  0.00    -0.216 N 
ATOM      9  C           0     139.630 131.720 146.266  0.00  0.00     0.670 C 
ATOM     10  N           0     140.920 131.914 146.279  0.00  0.00    -0.235 N 
ATOM     11  H           0     141.515 131.198 146.550  0.00  0.00     0.174 HD
ATOM     12  H           0     141.282 132.776 146.017  0.00  0.00     0.174 HD
ATOM     13  C           0     137.404 132.011 145.736  0.00  0.00     0.220 C 
ATOM     14  N           0     138.710 132.669 145.898  0.00  0.00    -0.191 N 
ATOM     15  N           0     136.396 132.624 146.603  0.00  0.00    -0.180 N 
ATOM     16  C           0     135.965 133.845 145.896  0.00  0.00     0.183 C 
ATOM     17  C           0     135.932 133.432 144.405  0.00  0.00     0.227 C 
ATOM     18  C           0     136.889 132.217 144.302  0.00  0.00     0.238 C 
ATOM     19  H           0     136.428 130.581 149.049  0.00  0.00     0.178 HD
ATOM     20  H           0     139.420 129.828 147.148  0.00  0.00     0.178 HD
ATOM     21  H           0     138.891 133.613 145.766  0.00  0.00     0.180 HD
ENDROOT
BRANCH   6  22
ATOM     22  C           0     135.415 129.542 146.305  0.00  0.00     0.208 C 
BRANCH  22  23
ATOM     23  O           0     134.857 128.347 146.912  0.00  0.00    -0.302 OA
BRANCH  23  24
ATOM     24  C           0     133.780 128.440 147.716  0.00  0.00     0.358 C 
ATOM     25  N           0     132.586 127.975 147.298  0.00  0.00    -0.346 N 
ATOM     26  H           0     132.503 127.574 146.419  0.00  0.00     0.161 HD
ATOM     27  H           0     131.810 128.042 147.876  0.00  0.00     0.161 HD
ATOM     28  O           0     133.885 128.943 148.817  0.00  0.00    -0.239 OA
ENDBRANCH  23  24
ENDBRANCH  22  23
ENDBRANCH   6  22
BRANCH  18  29
ATOM     29  O           0     137.971 132.509 143.415  0.00  0.00    -0.360 OA
ATOM     30  H           0     138.755 132.644 143.965  0.00  0.00     0.213 HD
ENDBRANCH  18  29
BRANCH  18  31
ATOM     31  O           0     136.178 131.060 143.857  0.00  0.00    -0.360 OA
ATOM     32  H           0     135.532 131.362 143.204  0.00  0.00     0.213 HD
ENDBRANCH  18  31
BRANCH  17  33
ATOM     33  O           0     134.607 133.059 144.023  0.00  0.00    -0.263 OA
BRANCH  33  34
ATOM     34  S           0     134.347 133.689 142.662  0.00  0.00     0.262 S 
ATOM     35  O           0     133.013 133.265 142.206  0.00  0.00    -0.199 OA
ATOM     36  C           0     134.475 135.488 142.847  0.00  0.00     0.194 C 
ATOM     37  O           0     135.336 133.152 141.712  0.00  0.00    -0.199 OA
ENDBRANCH  33  34
ENDBRANCH  17  33
TORSDOF 7
ENDMDL
MODEL 3
REMARK VINA RESULT:      -7.1      2.191      2.544
REMARK  7 active torsions:
REMARK  status: ('A' for Active; 'I' for Inactive)
REMARK    1  A    between atoms: C_6  and  C_7 
REMARK    2  A    between atoms: C_7  and  O_8 
REMARK    3  A    between atoms: O_8  and  C_9 
REMARK       I    between atoms: C_9  and  N_10 
REMARK    4  A    between atoms: C_22  and  O_23 
REMARK    5  A    between atoms: O_23  and  S_24 
REMARK    6  A    between atoms: C_28  and  O_29 
REMARK    7  A    between atoms: C_28  and  O_30 
ROOT
ATOM      1  N           0     136.243 135.051 147.842  0.00  0.00    -0.235 N 
ATOM      2  H           0     136.073 135.337 148.753  0.00  0.00     0.174 HD
ATOM      3  H           0     136.263 135.703 147.125  0.00  0.00     0.174 HD
ATOM      4  C           0     136.453 133.790 147.583  0.00  0.00     0.672 C 
ATOM      5  N           0     136.442 132.823 148.572  0.00  0.00    -0.218 N 
ATOM      6  C           0     136.059 131.463 148.206  0.00  0.00     0.151 C 
ATOM      7  C           0     136.831 130.940 147.010  0.00  0.00     0.180 C 
ATOM      8  N           0     138.192 130.555 147.440  0.00  0.00    -0.216 N 
ATOM      9  C           0     139.064 130.941 146.453  0.00  0.00     0.670 C 
ATOM     10  N           0     140.268 130.459 146.309  0.00  0.00    -0.235 N 
ATOM     11  H           0     140.595 129.784 146.924  0.00  0.00     0.174 HD
ATOM     12  H           0     140.834 130.777 145.588  0.00  0.00     0.174 HD
ATOM     13  C           0     137.072 131.978 145.925  0.00  0.00     0.220 C 
ATOM     14  N           0     138.513 131.897 145.636  0.00  0.00    -0.191 N 
ATOM     15  N           0     136.692 133.337 146.313  0.00  0.00    -0.180 N 
ATOM     16  C           0     136.568 134.083 145.046  0.00  0.00     0.183 C 
ATOM     17  C           0     135.927 133.071 144.067  0.00  0.00     0.227 C 
ATOM     18  C           0     136.266 131.676 144.651  0.00  0.00     0.238 C 
ATOM     19  H           0     136.682 133.043 149.486  0.00  0.00     0.178 HD
ATOM     20  H           0     138.426 130.109 148.270  0.00  0.00     0.178 HD
ATOM     21  H           0     138.992 132.425 144.978  0.00  0.00     0.180 HD
ENDROOT
BRANCH   6  22
ATOM     22  C           0     134.566 131.443 147.875  0.00  0.00     0.208 C 
BRANCH  22  23
ATOM     23  O           0     133.817 132.020 148.977  0.00  0.00    -0.302 OA
BRANCH  23  24
ATOM     24  C           0     132.652 131.466 149.363  0.00  0.00     0.358 C 
ATOM     25  N           0     132.465 130.137 149.241  0.00  0.00    -0.346 N 
ATOM     26  H           0     133.170 129.580 148.875  0.00  0.00     0.161 HD
ATOM     27  H           0     131.626 129.737 149.519  0.00  0.00     0.161 HD
ATOM     28  O           0     131.770 132.164 149.821  0.00  0.00    -0.239 OA
ENDBRANCH  23  24
ENDBRANCH  22  23
ENDBRANCH   6  22
BRANCH  18  29
ATOM     29  O           0     137.052 130.925 143.723  0.00  0.00    -0.360 OA
ATOM     30  H           0     137.966 130.960 144.037  0.00  0.00     0.213 HD
ENDBRANCH  18  29
BRANCH  18  31
ATOM     31  O           0     135.068 130.968 144.977  0.00  0.00    -0.360 OA
ATOM     32  H           0     134.910 130.340 144.259  0.00  0.00     0.213 HD
ENDBRANCH  18  31
BRANCH  17  33
ATOM     33  O           0     134.512 133.261 144.012  0.00  0.00    -0.263 OA
BRANCH  33  34
ATOM     34  S           0     134.185 133.730 142.602  0.00  0.00     0.262 S 
ATOM     35  O           0     134.196 135.201 142.593  0.00  0.00    -0.199 OA
ATOM     36  C           0     135.421 133.022 141.479  0.00  0.00     0.194 C 
ATOM     37  O           0     132.818 133.290 142.278  0.00  0.00    -0.199 OA
ENDBRANCH  33  34
ENDBRANCH  17  33
TORSDOF 7
ENDMDL
MODEL 4
REMARK VINA RESULT:      -7.1     12.357     14.835
REMARK  7 active torsions:
REMARK  status: ('A' for Active; 'I' for Inactive)
REMARK    1  A    between atoms: C_6  and  C_7 
REMARK    2  A    between atoms: C_7  and  O_8 
REMARK    3  A    between atoms: O_8  and  C_9 
REMARK       I    between atoms: C_9  and  N_10 
REMARK    4  A    between atoms: C_22  and  O_23 
REMARK    5  A    between atoms: O_23  and  S_24 
REMARK    6  A    between atoms: C_28  and  O_29 
REMARK    7  A    between atoms: C_28  and  O_30 
ROOT
ATOM      1  N           0     133.519 135.078 131.059  0.00  0.00    -0.235 N 
ATOM      2  H           0     133.457 135.814 130.430  0.00  0.00     0.174 HD
ATOM      3  H           0     134.217 134.411 130.958  0.00  0.00     0.174 HD
ATOM      4  C           0     132.671 134.990 132.045  0.00  0.00     0.672 C 
ATOM      5  N           0     131.664 135.919 132.235  0.00  0.00    -0.218 N 
ATOM      6  C           0     130.435 135.483 132.892  0.00  0.00     0.151 C 
ATOM      7  C           0     130.696 134.760 134.200  0.00  0.00     0.180 C 
ATOM      8  N           0     131.030 135.752 135.245  0.00  0.00    -0.216 N 
ATOM      9  C           0     132.035 135.220 136.014  0.00  0.00     0.670 C 
ATOM     10  N           0     132.332 135.631 137.216  0.00  0.00    -0.235 N 
ATOM     11  H           0     131.828 136.355 137.619  0.00  0.00     0.174 HD
ATOM     12  H           0     133.057 135.210 137.707  0.00  0.00     0.174 HD
ATOM     13  C           0     131.907 133.841 134.170  0.00  0.00     0.220 C 
ATOM     14  N           0     132.689 134.205 135.362  0.00  0.00    -0.191 N 
ATOM     15  N           0     132.715 133.968 132.955  0.00  0.00    -0.180 N 
ATOM     16  C           0     133.530 132.740 132.901  0.00  0.00     0.183 C 
ATOM     17  C           0     132.579 131.626 133.397  0.00  0.00     0.227 C 
ATOM     18  C           0     131.505 132.359 134.241  0.00  0.00     0.238 C 
ATOM     19  H           0     131.771 136.837 131.939  0.00  0.00     0.178 HD
ATOM     20  H           0     130.613 136.620 135.366  0.00  0.00     0.178 HD
ATOM     21  H           0     133.523 133.795 135.642  0.00  0.00     0.180 HD
ENDROOT
BRANCH   6  22
ATOM     22  C           0     129.679 134.543 131.953  0.00  0.00     0.208 C 
BRANCH  22  23
ATOM     23  O           0     128.371 134.250 132.510  0.00  0.00    -0.302 OA
BRANCH  23  24
ATOM     24  C           0     127.572 133.344 131.914  0.00  0.00     0.358 C 
ATOM     25  N           0     128.112 132.292 131.266  0.00  0.00    -0.346 N 
ATOM     26  H           0     129.076 132.188 131.231  0.00  0.00     0.161 HD
ATOM     27  H           0     127.537 131.640 130.837  0.00  0.00     0.161 HD
ATOM     28  O           0     126.365 133.475 131.959  0.00  0.00    -0.239 OA
ENDBRANCH  23  24
ENDBRANCH  22  23
ENDBRANCH   6  22
BRANCH  18  29
ATOM     29  O           0     131.530 131.894 135.591  0.00  0.00    -0.360 OA
ATOM     30  H           0     131.763 132.652 136.145  0.00  0.00     0.213 HD
ENDBRANCH  18  29
BRANCH  18  31
ATOM     31  O           0     130.208 132.168 133.671  0.00  0.00    -0.360 OA
ATOM     32  H           0     130.069 131.213 133.606  0.00  0.00     0.213 HD
ENDBRANCH  18  31
BRANCH  17  33
ATOM     33  O           0     131.974 130.958 132.287  0.00  0.00    -0.263 OA
BRANCH  33  34
ATOM     34  S           0     131.985 129.471 132.609  0.00  0.00     0.262 S 
ATOM     35  O           0     130.669 129.111 133.162  0.00  0.00    -0.199 OA
ATOM     36  C           0     132.359 128.573 131.078  0.00  0.00     0.194 C 
ATOM     37  O           0     132.991 129.235 133.657  0.00  0.00    -0.199 OA
ENDBRANCH  33  34
ENDBRANCH  17  33
TORSDOF 7
ENDMDL
MODEL 5
REMARK VINA RESULT:      -6.9     11.505     14.282
REMARK  7 active torsions:
REMARK  status: ('A' for Active; 'I' for Inactive)
REMARK    1  A    between atoms: C_6  and  C_7 
REMARK    2  A    between atoms: C_7  and  O_8 
REMARK    3  A    between atoms: O_8  and  C_9 
REMARK       I    between atoms: C_9  and  N_10 
REMARK    4  A    between atoms: C_22  and  O_23 
REMARK    5  A    between atoms: O_23  and  S_24 
REMARK    6  A    between atoms: C_28  and  O_29 
REMARK    7  A    between atoms: C_28  and  O_30 
ROOT
ATOM      1  N           0     131.251 133.408 137.005  0.00  0.00    -0.235 N 
ATOM      2  H           0     131.211 134.045 137.735  0.00  0.00     0.174 HD
ATOM      3  H           0     131.383 132.465 137.191  0.00  0.00     0.174 HD
ATOM      4  C           0     131.119 133.817 135.774  0.00  0.00     0.672 C 
ATOM      5  N           0     130.922 135.149 135.458  0.00  0.00    -0.218 N 
ATOM      6  C           0     131.393 135.629 134.162  0.00  0.00     0.151 C 
ATOM      7  C           0     130.912 134.770 133.009  0.00  0.00     0.180 C 
ATOM      8  N           0     129.494 135.082 132.729  0.00  0.00    -0.216 N 
ATOM      9  C           0     128.858 133.899 132.443  0.00  0.00     0.670 C 
ATOM     10  N           0     127.722 133.814 131.807  0.00  0.00    -0.235 N 
ATOM     11  H           0     127.275 134.619 131.505  0.00  0.00     0.174 HD
ATOM     12  H           0     127.326 132.944 131.638  0.00  0.00     0.174 HD
ATOM     13  C           0     130.905 133.279 133.307  0.00  0.00     0.220 C 
ATOM     14  N           0     129.565 132.819 132.908  0.00  0.00    -0.191 N 
ATOM     15  N           0     131.173 132.956 134.710  0.00  0.00    -0.180 N 
ATOM     16  C           0     131.566 131.534 134.713  0.00  0.00     0.183 C 
ATOM     17  C           0     132.420 131.369 133.434  0.00  0.00     0.227 C 
ATOM     18  C           0     131.977 132.526 132.503  0.00  0.00     0.238 C 
ATOM     19  H           0     130.482 135.749 136.081  0.00  0.00     0.178 HD
ATOM     20  H           0     129.088 135.963 132.743  0.00  0.00     0.178 HD
ATOM     21  H           0     129.237 131.907 132.962  0.00  0.00     0.180 HD
ENDROOT
BRANCH   6  22
ATOM     22  C           0     132.923 135.638 134.165  0.00  0.00     0.208 C 
BRANCH  22  23
ATOM     23  O           0     133.403 136.015 135.482  0.00  0.00    -0.302 OA
BRANCH  23  24
ATOM     24  C           0     134.344 135.271 136.095  0.00  0.00     0.358 C 
ATOM     25  N           0     134.919 135.714 137.230  0.00  0.00    -0.346 N 
ATOM     26  H           0     134.654 136.568 137.606  0.00  0.00     0.161 HD
ATOM     27  H           0     135.596 135.178 137.672  0.00  0.00     0.161 HD
ATOM     28  O           0     134.674 134.201 135.623  0.00  0.00    -0.239 OA
ENDBRANCH  23  24
ENDBRANCH  22  23
ENDBRANCH   6  22
BRANCH  18  29
ATOM     29  O           0     131.426 132.007 131.291  0.00  0.00    -0.360 OA
ATOM     30  H           0     132.113 132.084 130.615  0.00  0.00     0.213 HD
ENDBRANCH  18  29
BRANCH  18  31
ATOM     31  O           0     133.082 133.388 132.219  0.00  0.00    -0.360 OA
ATOM     32  H           0     132.887 134.239 132.635  0.00  0.00     0.213 HD
ENDBRANCH  18  31
BRANCH  17  33
ATOM     33  O           0     133.810 131.482 133.746  0.00  0.00    -0.263 OA
BRANCH  33  34
ATOM     34  S           0     134.388 130.075 133.698  0.00  0.00     0.262 S 
ATOM     35  O           0     133.321 129.155 133.274  0.00  0.00    -0.199 OA
ATOM     36  C           0     135.787 130.089 132.544  0.00  0.00     0.194 C 
ATOM     37  O           0     134.791 129.697 135.062  0.00  0.00    -0.199 OA
ENDBRANCH  33  34
ENDBRANCH  17  33
TORSDOF 7
ENDMDL
MODEL 6
REMARK VINA RESULT:      -6.9     11.933     14.114
REMARK  7 active torsions:
REMARK  status: ('A' for Active; 'I' for Inactive)
REMARK    1  A    between atoms: C_6  and  C_7 
REMARK    2  A    between atoms: C_7  and  O_8 
REMARK    3  A    between atoms: O_8  and  C_9 
REMARK       I    between atoms: C_9  and  N_10 
REMARK    4  A    between atoms: C_22  and  O_23 
REMARK    5  A    between atoms: O_23  and  S_24 
REMARK    6  A    between atoms: C_28  and  O_29 
REMARK    7  A    between atoms: C_28  and  O_30 
ROOT
ATOM      1  N           0     128.860 134.207 132.009  0.00  0.00    -0.235 N 
ATOM      2  H           0     128.160 133.784 131.488  0.00  0.00     0.174 HD
ATOM      3  H           0     128.993 135.166 131.954  0.00  0.00     0.174 HD
ATOM      4  C           0     129.616 133.487 132.791  0.00  0.00     0.672 C 
ATOM      5  N           0     129.461 132.118 132.909  0.00  0.00    -0.218 N 
ATOM      6  C           0     130.632 131.316 133.249  0.00  0.00     0.151 C 
ATOM      7  C           0     131.364 131.839 134.470  0.00  0.00     0.180 C 
ATOM      8  N           0     130.617 131.457 135.686  0.00  0.00    -0.216 N 
ATOM      9  C           0     130.667 132.519 136.555  0.00  0.00     0.670 C 
ATOM     10  N           0     130.443 132.428 137.837  0.00  0.00    -0.235 N 
ATOM     11  H           0     130.224 131.569 138.231  0.00  0.00     0.174 HD
ATOM     12  H           0     130.494 133.221 138.395  0.00  0.00     0.174 HD
ATOM     13  C           0     131.436 133.356 134.548  0.00  0.00     0.220 C 
ATOM     14  N           0     130.982 133.688 135.908  0.00  0.00    -0.191 N 
ATOM     15  N           0     130.620 134.038 133.542  0.00  0.00    -0.180 N 
ATOM     16  C           0     131.151 135.413 133.477  0.00  0.00     0.183 C 
ATOM     17  C           0     132.682 135.239 133.621  0.00  0.00     0.227 C 
ATOM     18  C           0     132.867 133.876 134.334  0.00  0.00     0.238 C 
ATOM     19  H           0     128.596 131.701 132.769  0.00  0.00     0.178 HD
ATOM     20  H           0     130.172 130.609 135.843  0.00  0.00     0.178 HD
ATOM     21  H           0     130.918 134.580 136.284  0.00  0.00     0.180 HD
ENDROOT
BRANCH   6  22
ATOM     22  C           0     131.594 131.316 132.060  0.00  0.00     0.208 C 
BRANCH  22  23
ATOM     23  O           0     132.710 130.431 132.340  0.00  0.00    -0.302 OA
BRANCH  23  24
ATOM     24  C           0     132.594 129.108 132.116  0.00  0.00     0.358 C 
ATOM     25  N           0     132.574 128.248 133.154  0.00  0.00    -0.346 N 
ATOM     26  H           0     132.643 128.583 134.061  0.00  0.00     0.161 HD
ATOM     27  H           0     132.489 127.296 132.993  0.00  0.00     0.161 HD
ATOM     28  O           0     132.506 128.690 130.978  0.00  0.00    -0.239 OA
ENDBRANCH  23  24
ENDBRANCH  22  23
ENDBRANCH   6  22
BRANCH  18  29
ATOM     29  O           0     133.531 134.055 135.586  0.00  0.00    -0.360 OA
ATOM     30  H           0     133.244 134.910 135.936  0.00  0.00     0.213 HD
ENDBRANCH  18  29
BRANCH  18  31
ATOM     31  O           0     133.604 132.975 133.503  0.00  0.00    -0.360 OA
ATOM     32  H           0     132.968 132.567 132.900  0.00  0.00     0.213 HD
ENDBRANCH  18  31
BRANCH  17  33
ATOM     33  O           0     133.302 135.220 132.334  0.00  0.00    -0.263 OA
BRANCH  33  34
ATOM     34  S           0     134.516 136.134 132.416  0.00  0.00     0.262 S 
ATOM     35  O           0     135.149 135.941 133.730  0.00  0.00    -0.199 OA
ATOM     36  C           0     135.625 135.712 131.045  0.00  0.00     0.194 C 
ATOM     37  O           0     134.046 137.528 132.347  0.00  0.00    -0.199 OA
ENDBRANCH  33  34
ENDBRANCH  17  33
TORSDOF 7
ENDMDL
MODEL 7
REMARK VINA RESULT:      -6.8     10.896     13.542
REMARK  7 active torsions:
REMARK  status: ('A' for Active; 'I' for Inactive)
REMARK    1  A    between atoms: C_6  and  C_7 
REMARK    2  A    between atoms: C_7  and  O_8 
REMARK    3  A    between atoms: O_8  and  C_9 
REMARK       I    between atoms: C_9  and  N_10 
REMARK    4  A    between atoms: C_22  and  O_23 
REMARK    5  A    between atoms: O_23  and  S_24 
REMARK    6  A    between atoms: C_28  and  O_29 
REMARK    7  A    between atoms: C_28  and  O_30 
ROOT
ATOM      1  N           0     130.393 132.962 136.455  0.00  0.00    -0.235 N 
ATOM      2  H           0     130.058 133.251 137.318  0.00  0.00     0.174 HD
ATOM      3  H           0     130.171 132.079 136.119  0.00  0.00     0.174 HD
ATOM      4  C           0     131.134 133.763 135.742  0.00  0.00     0.672 C 
ATOM      5  N           0     131.472 135.033 136.174  0.00  0.00    -0.218 N 
ATOM      6  C           0     132.728 135.612 135.705  0.00  0.00     0.151 C 
ATOM      7  C           0     132.876 135.545 134.197  0.00  0.00     0.180 C 
ATOM      8  N           0     132.039 136.595 133.579  0.00  0.00    -0.216 N 
ATOM      9  C           0     131.468 136.060 132.451  0.00  0.00     0.670 C 
ATOM     10  N           0     130.974 136.768 131.474  0.00  0.00    -0.235 N 
ATOM     11  H           0     130.996 137.737 131.518  0.00  0.00     0.174 HD
ATOM     12  H           0     130.584 136.325 130.703  0.00  0.00     0.174 HD
ATOM     13  C           0     132.359 134.256 133.579  0.00  0.00     0.220 C 
ATOM     14  N           0     131.482 134.687 132.479  0.00  0.00    -0.191 N 
ATOM     15  N           0     131.635 133.399 134.520  0.00  0.00    -0.180 N 
ATOM     16  C           0     131.618 132.063 133.895  0.00  0.00     0.183 C 
ATOM     17  C           0     133.012 131.929 133.238  0.00  0.00     0.227 C 
ATOM     18  C           0     133.500 133.385 133.028  0.00  0.00     0.238 C 
ATOM     19  H           0     130.890 135.527 136.773  0.00  0.00     0.178 HD
ATOM     20  H           0     131.915 137.499 133.910  0.00  0.00     0.178 HD
ATOM     21  H           0     130.999 134.103 131.874  0.00  0.00     0.180 HD
ENDROOT
BRANCH   6  22
ATOM     22  C           0     133.891 134.855 136.348  0.00  0.00     0.208 C 
BRANCH  22  23
ATOM     23  O           0     134.248 135.490 137.604  0.00  0.00    -0.302 OA
BRANCH  23  24
ATOM     24  C           0     133.530 135.236 138.715  0.00  0.00     0.358 C 
ATOM     25  N           0     133.519 136.125 139.728  0.00  0.00    -0.346 N 
ATOM     26  H           0     134.028 136.947 139.657  0.00  0.00     0.161 HD
ATOM     27  H           0     133.002 135.942 140.528  0.00  0.00     0.161 HD
ATOM     28  O           0     132.892 134.206 138.803  0.00  0.00    -0.239 OA
ENDBRANCH  23  24
ENDBRANCH  22  23
ENDBRANCH   6  22
BRANCH  18  29
ATOM     29  O           0     133.706 133.645 131.638  0.00  0.00    -0.360 OA
ATOM     30  H           0     133.528 134.585 131.499  0.00  0.00     0.213 HD
ENDBRANCH  18  29
BRANCH  18  31
ATOM     31  O           0     134.703 133.618 133.762  0.00  0.00    -0.360 OA
ATOM     32  H           0     135.160 132.768 133.828  0.00  0.00     0.213 HD
ENDBRANCH  18  31
BRANCH  17  33
ATOM     33  O           0     133.903 131.223 134.104  0.00  0.00    -0.263 OA
BRANCH  33  34
ATOM     34  S           0     134.636 130.203 133.245  0.00  0.00     0.262 S 
ATOM     35  O           0     134.795 128.969 134.032  0.00  0.00    -0.199 OA
ATOM     36  C           0     133.661 129.940 131.738  0.00  0.00     0.194 C 
ATOM     37  O           0     135.981 130.727 132.958  0.00  0.00    -0.199 OA
ENDBRANCH  33  34
ENDBRANCH  17  33
TORSDOF 7
ENDMDL
MODEL 8
REMARK VINA RESULT:      -6.8      3.227      6.217
REMARK  7 active torsions:
REMARK  status: ('A' for Active; 'I' for Inactive)
REMARK    1  A    between atoms: C_6  and  C_7 
REMARK    2  A    between atoms: C_7  and  O_8 
REMARK    3  A    between atoms: O_8  and  C_9 
REMARK       I    between atoms: C_9  and  N_10 
REMARK    4  A    between atoms: C_22  and  O_23 
REMARK    5  A    between atoms: O_23  and  S_24 
REMARK    6  A    between atoms: C_28  and  O_29 
REMARK    7  A    between atoms: C_28  and  O_30 
ROOT
ATOM      1  N           0     135.940 134.719 146.911  0.00  0.00    -0.235 N 
ATOM      2  H           0     136.348 135.571 147.130  0.00  0.00     0.174 HD
ATOM      3  H           0     135.480 134.211 147.597  0.00  0.00     0.174 HD
ATOM      4  C           0     136.004 134.260 145.692  0.00  0.00     0.672 C 
ATOM      5  N           0     136.644 134.950 144.678  0.00  0.00    -0.218 N 
ATOM      6  C           0     137.223 134.183 143.578  0.00  0.00     0.151 C 
ATOM      7  C           0     136.240 133.202 142.968  0.00  0.00     0.180 C 
ATOM      8  N           0     135.296 133.937 142.100  0.00  0.00    -0.216 N 
ATOM      9  C           0     134.051 133.386 142.281  0.00  0.00     0.670 C 
ATOM     10  N           0     133.062 133.520 141.442  0.00  0.00    -0.235 N 
ATOM     11  H           0     133.182 134.036 140.630  0.00  0.00     0.174 HD
ATOM     12  H           0     132.206 133.104 141.632  0.00  0.00     0.174 HD
ATOM     13  C           0     135.341 132.512 143.982  0.00  0.00     0.220 C 
ATOM     14  N           0     133.978 132.677 143.454  0.00  0.00    -0.191 N 
ATOM     15  N           0     135.449 133.059 145.335  0.00  0.00    -0.180 N 
ATOM     16  C           0     134.888 132.022 146.221  0.00  0.00     0.183 C 
ATOM     17  C           0     135.374 130.689 145.604  0.00  0.00     0.227 C 
ATOM     18  C           0     135.671 131.017 144.119  0.00  0.00     0.238 C 
ATOM     19  H           0     136.706 135.918 144.697  0.00  0.00     0.178 HD
ATOM     20  H           0     135.516 134.674 141.508  0.00  0.00     0.178 HD
ATOM     21  H           0     133.165 132.340 143.863  0.00  0.00     0.180 HD
ENDROOT
BRANCH   6  22
ATOM     22  C           0     138.433 133.407 144.100  0.00  0.00     0.208 C 
BRANCH  22  23
ATOM     23  O           0     138.316 133.236 145.537  0.00  0.00    -0.302 OA
BRANCH  23  24
ATOM     24  C           0     139.196 132.459 146.197  0.00  0.00     0.358 C 
ATOM     25  N           0     139.204 131.126 145.991  0.00  0.00    -0.346 N 
ATOM     26  H           0     138.576 130.729 145.367  0.00  0.00     0.161 HD
ATOM     27  H           0     139.837 130.566 146.465  0.00  0.00     0.161 HD
ATOM     28  O           0     139.982 132.957 146.978  0.00  0.00    -0.239 OA
ENDBRANCH  23  24
ENDBRANCH  22  23
ENDBRANCH   6  22
BRANCH  18  29
ATOM     29  O           0     134.838 130.236 143.260  0.00  0.00    -0.360 OA
ATOM     30  H           0     134.265 130.854 142.788  0.00  0.00     0.213 HD
ENDBRANCH  18  29
BRANCH  18  31
ATOM     31  O           0     137.050 130.783 143.823  0.00  0.00    -0.360 OA
ATOM     32  H           0     137.116 130.673 142.865  0.00  0.00     0.213 HD
ENDBRANCH  18  31
BRANCH  17  33
ATOM     33  O           0     136.559 130.239 146.264  0.00  0.00    -0.263 OA
BRANCH  33  34
ATOM     34  S           0     136.112 129.348 147.414  0.00  0.00     0.262 S 
ATOM     35  O           0     135.876 130.200 148.591  0.00  0.00    -0.199 OA
ATOM     36  C           0     134.616 128.468 146.887  0.00  0.00     0.194 C 
ATOM     37  O           0     137.216 128.430 147.740  0.00  0.00    -0.199 OA
ENDBRANCH  33  34
ENDBRANCH  17  33
TORSDOF 7
ENDMDL
MODEL 9
REMARK VINA RESULT:      -6.7      3.260      6.151
REMARK  7 active torsions:
REMARK  status: ('A' for Active; 'I' for Inactive)
REMARK    1  A    between atoms: C_6  and  C_7 
REMARK    2  A    between atoms: C_7  and  O_8 
REMARK    3  A    between atoms: O_8  and  C_9 
REMARK       I    between atoms: C_9  and  N_10 
REMARK    4  A    between atoms: C_22  and  O_23 
REMARK    5  A    between atoms: O_23  and  S_24 
REMARK    6  A    between atoms: C_28  and  O_29 
REMARK    7  A    between atoms: C_28  and  O_30 
ROOT
ATOM      1  N           0     136.369 134.504 147.439  0.00  0.00    -0.235 N 
ATOM      2  H           0     136.937 135.285 147.348  0.00  0.00     0.174 HD
ATOM      3  H           0     135.735 134.448 148.171  0.00  0.00     0.174 HD
ATOM      4  C           0     136.452 133.533 146.572  0.00  0.00     0.672 C 
ATOM      5  N           0     137.334 133.569 145.508  0.00  0.00    -0.218 N 
ATOM      6  C           0     137.832 132.302 144.979  0.00  0.00     0.151 C 
ATOM      7  C           0     136.719 131.321 144.667  0.00  0.00     0.180 C 
ATOM      8  N           0     136.064 131.715 143.402  0.00  0.00    -0.216 N 
ATOM      9  C           0     134.714 131.514 143.553  0.00  0.00     0.670 C 
ATOM     10  N           0     133.875 131.403 142.561  0.00  0.00    -0.235 N 
ATOM     11  H           0     134.194 131.462 141.647  0.00  0.00     0.174 HD
ATOM     12  H           0     132.931 131.262 142.738  0.00  0.00     0.174 HD
ATOM     13  C           0     135.585 131.326 145.680  0.00  0.00     0.220 C 
ATOM     14  N           0     134.358 131.444 144.877  0.00  0.00    -0.191 N 
ATOM     15  N           0     135.675 132.408 146.662  0.00  0.00    -0.180 N 
ATOM     16  C           0     134.802 131.996 147.777  0.00  0.00     0.183 C 
ATOM     17  C           0     135.029 130.471 147.898  0.00  0.00     0.227 C 
ATOM     18  C           0     135.546 130.029 146.506  0.00  0.00     0.238 C 
ATOM     19  H           0     137.616 134.414 145.123  0.00  0.00     0.178 HD
ATOM     20  H           0     136.508 132.052 142.607  0.00  0.00     0.178 HD
ATOM     21  H           0     133.452 131.466 145.222  0.00  0.00     0.180 HD
ENDROOT
BRANCH   6  22
ATOM     22  C           0     138.770 131.671 146.009  0.00  0.00     0.208 C 
BRANCH  22  23
ATOM     23  O           0     139.762 132.647 146.423  0.00  0.00    -0.302 OA
BRANCH  23  24
ATOM     24  C           0     139.982 132.871 147.733  0.00  0.00     0.358 C 
ATOM     25  N           0     141.039 132.301 148.346  0.00  0.00    -0.346 N 
ATOM     26  H           0     141.640 131.730 147.842  0.00  0.00     0.161 HD
ATOM     27  H           0     141.197 132.461 149.289  0.00  0.00     0.161 HD
ATOM     28  O           0     139.227 133.586 148.362  0.00  0.00    -0.239 OA
ENDBRANCH  23  24
ENDBRANCH  22  23
ENDBRANCH   6  22
BRANCH  18  29
ATOM     29  O           0     134.649 129.084 145.918  0.00  0.00    -0.360 OA
ATOM     30  H           0     133.817 129.551 145.757  0.00  0.00     0.213 HD
ENDBRANCH  18  29
BRANCH  18  31
ATOM     31  O           0     136.857 129.470 146.616  0.00  0.00    -0.360 OA
ATOM     32  H           0     137.252 129.839 147.418  0.00  0.00     0.213 HD
ENDBRANCH  18  31
BRANCH  17  33
ATOM     33  O           0     136.004 130.193 148.906  0.00  0.00    -0.263 OA
BRANCH  33  34
ATOM     34  S           0     135.471 129.026 149.724  0.00  0.00     0.262 S 
ATOM     35  O           0     135.877 129.224 151.125  0.00  0.00    -0.199 OA
ATOM     36  C           0     133.668 128.985 149.527  0.00  0.00     0.194 C 
ATOM     37  O           0     136.115 127.794 149.241  0.00  0.00    -0.199 OA
ENDBRANCH  33  34
ENDBRANCH  17  33
TORSDOF 7
ENDMDL
