# created with PyMOL 2.3.4
@<TRIPOS>MOLECULE
ligand_out_0001
37 39 1                 
SMALL
USER_CHARGES
@<TRIPOS>ATOM
1	   N	134.361	132.254	149.254	N.3	1	UNK0	-0.235	
2	   N	135.136	130.052	148.966	N.3	1	UNK0	-0.218	
3	   N	137.832	129.070	147.845	N.3	1	UNK0	-0.216	
4	   N	140.031	129.941	147.796	N.3	1	UNK0	-0.235	
5	   N	138.145	131.201	147.123	N.3	1	UNK0	-0.191	
6	   N	135.814	131.729	147.496	N.3	1	UNK0	-0.180	
7	   N	131.803	128.891	148.591	N.pl3	1	UNK0	-0.346	
8	   C	135.077	131.384	148.598	C.3	1	UNK0	0.672	
9	   C	135.392	129.058	147.927	C.3	1	UNK0	0.151	
10	   C	136.607	129.394	147.084	C.3	1	UNK0	0.180	
11	   C	138.748	130.064	147.600	C.3	1	UNK0	0.670	
12	   C	136.754	130.875	146.769	C.3	1	UNK0	0.220	
13	   C	135.794	133.004	146.756	C.3	1	UNK0	0.183	
14	   C	135.870	132.585	145.269	C.2	1	UNK0	0.227	
15	   C	136.510	131.173	145.281	C.3	1	UNK0	0.238	
16	   C	134.168	128.971	147.014	C.2	1	UNK0	0.208	
17	   C	132.151	127.868	147.784	C.2	1	UNK0	0.358	
18	   C	135.172	134.938	143.622	C.3	1	UNK0	0.194	
19	   O	133.414	127.770	147.328	O.2	1	UNK0	-0.302	
20	   O	131.325	127.035	147.468	O.co2	1	UNK0	-0.239	
21	   O	137.743	131.179	144.559	O.2	1	UNK0	-0.360	
22	   O	135.609	130.214	144.722	O.2	1	UNK0	-0.360	
23	   O	134.561	132.536	144.699	O.2	1	UNK0	-0.263	
24	   O	133.321	133.143	142.705	O.3	1	UNK0	-0.199	
25	   O	135.594	132.476	142.506	O.3	1	UNK0	-0.199	
26	   S	134.644	133.225	143.344	S.3	1	UNK0	0.262	
27	   H	133.847	131.975	150.028	 H	1	UNK0	0.174	
28	   H	134.346	133.182	148.971	 H	1	UNK0	0.174	
29	   H	140.392	129.108	148.136	 H	1	UNK0	0.174	
30	   H	140.624	130.685	147.602	 H	1	UNK0	0.174	
31	   H	135.010	129.784	149.890	 H	1	UNK0	0.178	
32	   H	137.966	128.295	148.414	 H	1	UNK0	0.178	
33	   H	138.566	132.070	147.032	 H	1	UNK0	0.180	
34	   H	132.463	129.555	148.842	 H	1	UNK0	0.161	
35	   H	130.893	128.962	148.919	 H	1	UNK0	0.161	
36	   H	138.182	132.017	144.760	 H	1	UNK0	0.213	
37	   H	135.899	129.345	145.033	 H	1	UNK0	0.213	
@<TRIPOS>BOND
1 1 8 1
2 1 27 1
3 1 28 1
4 2 9 1
5 2 31 1
6 3 11 1
7 3 32 1
8 4 29 1
9 4 30 1
10 5 33 1
11 6 13 1
12 7 34 1
13 7 35 1
14 2 8 1
15 6 8 1
16 9 10 1
17 9 16 1
18 3 10 1
19 10 12 1
20 4 11 1
21 5 11 1
22 5 12 1
23 6 12 1
24 12 15 1
25 13 14 1
26 14 15 1
27 14 23 2
28 15 21 2
29 15 22 2
30 16 19 2
31 7 17 1
32 17 20 2
33 17 19 2
34 21 36 1
35 22 37 1
36 23 26 1
37 18 26 1
38 24 26 1
39 25 26 1
@<TRIPOS>SUBSTRUCTURE
1	UNK0	1	GROUP	1 ****	UNK
