# created with PyMOL 2.3.4
@<TRIPOS>MOLECULE
ligand_out_0001
28 30 1                 
SMALL
USER_CHARGES
@<TRIPOS>ATOM
1	   N	135.194	132.360	146.896	N.3	1	UNK0	-0.235	
2	   N	136.609	134.074	146.122	N.3	1	UNK0	-0.218	
3	   N	136.232	135.971	143.725	N.3	1	UNK0	-0.216	
4	   N	134.360	136.894	142.612	N.3	1	UNK0	-0.235	
5	   N	134.556	134.583	143.073	N.3	1	UNK0	-0.191	
6	   N	135.296	132.873	144.615	N.3	1	UNK0	-0.183	
7	   C	135.676	133.072	145.917	C.3	1	UNK0	0.672	
8	   C	137.539	134.385	145.041	C.3	1	UNK0	0.150	
9	   C	136.839	134.623	143.718	C.3	1	UNK0	0.180	
10	   C	135.009	135.878	143.106	C.3	1	UNK0	0.670	
11	   C	135.663	133.694	143.460	C.3	1	UNK0	0.217	
12	   C	134.488	131.768	144.066	C.3	1	UNK0	0.150	
13	   C	135.179	131.417	142.727	C.3	1	UNK0	0.093	
14	   C	135.956	132.697	142.326	C.3	1	UNK0	0.209	
15	   C	138.515	133.219	144.878	C.2	1	UNK0	0.192	
16	   O	135.476	133.201	141.078	O.2	1	UNK0	-0.362	
17	   O	137.356	132.427	142.251	O.2	1	UNK0	-0.362	
18	   O	139.363	133.459	143.753	O.2	1	UNK0	-0.399	
19	   H	135.489	132.524	147.805	 H	1	UNK0	0.174	
20	   H	134.538	131.668	146.716	 H	1	UNK0	0.174	
21	   H	134.737	137.786	142.668	 H	1	UNK0	0.174	
22	   H	133.499	136.759	142.185	 H	1	UNK0	0.174	
23	   H	136.642	134.555	146.963	 H	1	UNK0	0.178	
24	   H	136.624	136.775	144.099	 H	1	UNK0	0.178	
25	   H	133.660	134.302	142.832	 H	1	UNK0	0.180	
26	   H	136.191	133.085	140.437	 H	1	UNK0	0.213	
27	   H	137.788	133.255	141.995	 H	1	UNK0	0.213	
28	   H	140.250	133.169	144.003	 H	1	UNK0	0.209	
@<TRIPOS>BOND
1 1 7 1
2 1 19 1
3 1 20 1
4 2 8 1
5 2 23 1
6 3 10 1
7 3 24 1
8 4 21 1
9 4 22 1
10 5 25 1
11 6 12 1
12 2 7 1
13 6 7 1
14 8 9 1
15 8 15 1
16 3 9 1
17 9 11 1
18 4 10 1
19 5 10 1
20 5 11 1
21 6 11 1
22 11 14 1
23 12 13 1
24 13 14 1
25 14 16 2
26 14 17 2
27 15 18 2
28 16 26 1
29 17 27 1
30 18 28 1
@<TRIPOS>SUBSTRUCTURE
1	UNK0	1	GROUP	1 ****	UNK
