# created with PyMOL 2.3.4
@<TRIPOS>MOLECULE
ligand_out_0001
37 39 1                 
SMALL
USER_CHARGES
@<TRIPOS>ATOM
1	   N	139.569	130.573	146.272	N.3	1	UNK0	-0.235	
2	   N	138.570	132.418	145.207	N.3	1	UNK0	-0.218	
3	   N	136.607	134.496	146.353	N.3	1	UNK0	-0.216	
4	   N	136.222	135.417	148.497	N.3	1	UNK0	-0.235	
5	   N	136.369	133.087	148.119	N.3	1	UNK0	-0.191	
6	   N	137.430	131.288	146.899	N.3	1	UNK0	-0.180	
7	   N	135.928	133.021	141.179	N.pl3	1	UNK0	-0.346	
8	   C	138.564	131.391	146.136	C.3	1	UNK0	0.672	
9	   C	137.291	132.870	144.667	C.3	1	UNK0	0.151	
10	   C	136.278	133.187	145.750	C.3	1	UNK0	0.180	
11	   C	136.389	134.396	147.706	C.3	1	UNK0	0.670	
12	   C	136.306	132.225	146.928	C.3	1	UNK0	0.220	
13	   C	137.050	130.197	147.813	C.3	1	UNK0	0.183	
14	   C	135.536	129.999	147.568	C.2	1	UNK0	0.230	
15	   C	135.044	131.348	146.983	C.3	1	UNK0	0.238	
16	   C	136.720	131.773	143.765	C.2	1	UNK0	0.208	
17	   C	135.295	133.143	142.362	C.2	1	UNK0	0.358	
18	   O	135.408	132.172	143.288	O.2	1	UNK0	-0.302	
19	   O	134.622	134.129	142.593	O.co2	1	UNK0	-0.239	
20	   O	134.061	131.934	147.838	O.2	1	UNK0	-0.360	
21	   O	134.513	131.157	145.669	O.2	1	UNK0	-0.360	
22	   O	134.866	129.720	148.799	O.2	1	UNK0	-0.244	
23	   O	134.212	128.040	147.238	O.3	1	UNK0	-0.572	
24	   O	135.135	127.424	149.385	O.3	1	UNK0	-0.572	
25	   O	132.930	128.405	149.255	O.3	1	UNK0	-0.572	
26	   S	134.257	128.332	148.663	S.3	1	UNK0	0.252	
27	   H	140.355	130.672	145.713	 H	1	UNK0	0.174	
28	   H	139.533	129.866	146.937	 H	1	UNK0	0.174	
29	   H	136.248	136.319	148.139	 H	1	UNK0	0.174	
30	   H	136.072	135.276	149.446	 H	1	UNK0	0.174	
31	   H	139.402	132.825	144.922	 H	1	UNK0	0.178	
32	   H	136.918	135.283	145.879	 H	1	UNK0	0.178	
33	   H	136.390	132.783	149.039	 H	1	UNK0	0.180	
34	   H	136.464	132.235	140.994	 H	1	UNK0	0.161	
35	   H	135.847	133.720	140.511	 H	1	UNK0	0.161	
36	   H	133.197	131.684	147.482	 H	1	UNK0	0.213	
37	   H	134.846	131.883	145.126	 H	1	UNK0	0.213	
@<TRIPOS>BOND
1 1 8 1
2 1 27 1
3 1 28 1
4 2 9 1
5 2 31 1
6 3 11 1
7 3 32 1
8 4 29 1
9 4 30 1
10 5 33 1
11 6 13 1
12 7 34 1
13 7 35 1
14 2 8 1
15 6 8 1
16 9 10 1
17 9 16 1
18 3 10 1
19 10 12 1
20 4 11 1
21 5 11 1
22 5 12 1
23 6 12 1
24 12 15 1
25 13 14 1
26 14 15 1
27 14 22 2
28 15 20 2
29 15 21 2
30 16 18 2
31 7 17 1
32 17 19 2
33 17 18 2
34 20 36 1
35 21 37 1
36 22 26 1
37 23 26 1
38 24 26 1
39 25 26 1
@<TRIPOS>SUBSTRUCTURE
1	UNK0	1	GROUP	1 ****	UNK
