# created with PyMOL 2.3.4
@<TRIPOS>MOLECULE
ligand_out_0001
32 34 1                 
SMALL
USER_CHARGES
@<TRIPOS>ATOM
1	   N	135.508	132.623	146.994	N.3	1	UNK0	-0.235	
2	   N	136.722	134.421	146.083	N.3	1	UNK0	-0.218	
3	   N	136.111	136.108	143.578	N.3	1	UNK0	-0.216	
4	   N	134.136	136.754	142.448	N.3	1	UNK0	-0.235	
5	   N	134.582	134.511	143.051	N.3	1	UNK0	-0.191	
6	   N	135.522	132.993	144.683	N.3	1	UNK0	-0.183	
7	   N	140.108	131.837	147.461	N.pl3	1	UNK0	-0.337	
8	   C	135.897	133.315	145.961	C.3	1	UNK0	0.672	
9	   C	137.598	134.756	144.965	C.3	1	UNK0	0.151	
10	   C	136.858	134.833	143.644	C.3	1	UNK0	0.180	
11	   C	134.896	135.846	142.993	C.3	1	UNK0	0.670	
12	   C	135.783	133.771	143.471	C.3	1	UNK0	0.217	
13	   C	134.828	131.776	144.223	C.3	1	UNK0	0.150	
14	   C	135.534	131.412	142.894	C.3	1	UNK0	0.093	
15	   C	136.163	132.738	142.397	C.3	1	UNK0	0.209	
16	   C	138.690	133.691	144.856	C.2	1	UNK0	0.208	
17	   C	140.247	132.578	146.343	C.2	1	UNK0	0.362	
18	   C	141.014	130.713	147.713	C.3	1	UNK0	0.154	
19	   C	139.052	132.155	148.424	C.3	1	UNK0	0.154	
20	   O	139.414	133.610	146.112	O.2	1	UNK0	-0.302	
21	   O	141.124	132.313	145.545	O.co2	1	UNK0	-0.238	
22	   O	135.615	133.106	141.129	O.2	1	UNK0	-0.362	
23	   O	137.584	132.612	142.309	O.2	1	UNK0	-0.362	
24	   H	135.797	132.877	147.885	 H	1	UNK0	0.174	
25	   H	134.926	131.855	146.873	 H	1	UNK0	0.174	
26	   H	134.418	137.682	142.440	 H	1	UNK0	0.174	
27	   H	133.287	136.501	142.050	 H	1	UNK0	0.174	
28	   H	136.716	134.959	146.891	 H	1	UNK0	0.178	
29	   H	136.422	136.970	143.892	 H	1	UNK0	0.178	
30	   H	133.717	134.122	142.848	 H	1	UNK0	0.180	
31	   H	136.364	133.282	140.542	 H	1	UNK0	0.213	
32	   H	137.953	133.493	142.458	 H	1	UNK0	0.213	
@<TRIPOS>BOND
1 1 8 1
2 1 24 1
3 1 25 1
4 2 9 1
5 2 28 1
6 3 11 1
7 3 29 1
8 4 26 1
9 4 27 1
10 5 30 1
11 6 13 1
12 7 18 1
13 7 19 1
14 2 8 1
15 6 8 1
16 9 10 1
17 9 16 1
18 3 10 1
19 10 12 1
20 4 11 1
21 5 11 1
22 5 12 1
23 6 12 1
24 12 15 1
25 13 14 1
26 14 15 1
27 15 22 2
28 15 23 2
29 16 20 2
30 7 17 1
31 17 21 2
32 17 20 2
33 22 31 1
34 23 32 1
@<TRIPOS>SUBSTRUCTURE
1	UNK0	1	GROUP	1 ****	UNK
