MODEL 1
REMARK VINA RESULT:      -8.3      0.000      0.000
REMARK  5 active torsions:
REMARK  status: ('A' for Active; 'I' for Inactive)
REMARK    1  A    between atoms: C_6  and  C_7 
REMARK    2  A    between atoms: C_7  and  O_8 
REMARK    3  A    between atoms: O_8  and  C_9 
REMARK       I    between atoms: C_9  and  N_10 
REMARK    4  A    between atoms: C_25  and  O_26 
REMARK    5  A    between atoms: C_25  and  O_27 
ROOT
ATOM      1  N           0     135.508 132.623 146.994  0.00  0.00    -0.235 N 
ATOM      2  H           0     135.797 132.877 147.885  0.00  0.00     0.174 HD
ATOM      3  H           0     134.926 131.855 146.873  0.00  0.00     0.174 HD
ATOM      4  C           0     135.897 133.315 145.961  0.00  0.00     0.672 C 
ATOM      5  N           0     136.722 134.421 146.083  0.00  0.00    -0.218 N 
ATOM      6  C           0     137.598 134.756 144.965  0.00  0.00     0.151 C 
ATOM      7  C           0     136.858 134.833 143.644  0.00  0.00     0.180 C 
ATOM      8  N           0     136.111 136.108 143.578  0.00  0.00    -0.216 N 
ATOM      9  C           0     134.896 135.846 142.993  0.00  0.00     0.670 C 
ATOM     10  N           0     134.136 136.754 142.448  0.00  0.00    -0.235 N 
ATOM     11  H           0     134.418 137.682 142.440  0.00  0.00     0.174 HD
ATOM     12  H           0     133.287 136.501 142.050  0.00  0.00     0.174 HD
ATOM     13  C           0     135.783 133.771 143.471  0.00  0.00     0.217 C 
ATOM     14  N           0     134.582 134.511 143.051  0.00  0.00    -0.191 N 
ATOM     15  N           0     135.522 132.993 144.683  0.00  0.00    -0.183 N 
ATOM     16  C           0     134.828 131.776 144.223  0.00  0.00     0.150 C 
ATOM     17  C           0     135.534 131.412 142.894  0.00  0.00     0.093 C 
ATOM     18  C           0     136.163 132.738 142.397  0.00  0.00     0.209 C 
ATOM     19  H           0     136.716 134.959 146.891  0.00  0.00     0.178 HD
ATOM     20  H           0     136.422 136.970 143.892  0.00  0.00     0.178 HD
ATOM     21  H           0     133.717 134.122 142.848  0.00  0.00     0.180 HD
ENDROOT
BRANCH   6  22
ATOM     22  C           0     138.690 133.691 144.856  0.00  0.00     0.208 C 
BRANCH  22  23
ATOM     23  O           0     139.414 133.610 146.112  0.00  0.00    -0.302 OA
BRANCH  23  24
ATOM     24  C           0     140.247 132.578 146.343  0.00  0.00     0.362 C 
ATOM     25  N           0     140.108 131.837 147.461  0.00  0.00    -0.337 N 
ATOM     26  C           0     141.014 130.713 147.713  0.00  0.00     0.154 C 
ATOM     27  C           0     139.052 132.155 148.424  0.00  0.00     0.154 C 
ATOM     28  O           0     141.124 132.313 145.545  0.00  0.00    -0.238 OA
ENDBRANCH  23  24
ENDBRANCH  22  23
ENDBRANCH   6  22
BRANCH  18  29
ATOM     29  O           0     135.615 133.106 141.129  0.00  0.00    -0.362 OA
ATOM     30  H           0     136.364 133.282 140.542  0.00  0.00     0.213 HD
ENDBRANCH  18  29
BRANCH  18  31
ATOM     31  O           0     137.584 132.612 142.309  0.00  0.00    -0.362 OA
ATOM     32  H           0     137.953 133.493 142.458  0.00  0.00     0.213 HD
ENDBRANCH  18  31
TORSDOF 5
ENDMDL
MODEL 2
REMARK VINA RESULT:      -7.8      1.639      2.160
REMARK  5 active torsions:
REMARK  status: ('A' for Active; 'I' for Inactive)
REMARK    1  A    between atoms: C_6  and  C_7 
REMARK    2  A    between atoms: C_7  and  O_8 
REMARK    3  A    between atoms: O_8  and  C_9 
REMARK       I    between atoms: C_9  and  N_10 
REMARK    4  A    between atoms: C_25  and  O_26 
REMARK    5  A    between atoms: C_25  and  O_27 
ROOT
ATOM      1  N           0     135.137 132.483 146.952  0.00  0.00    -0.235 N 
ATOM      2  H           0     135.284 132.764 147.869  0.00  0.00     0.174 HD
ATOM      3  H           0     134.647 131.667 146.767  0.00  0.00     0.174 HD
ATOM      4  C           0     135.595 133.206 145.968  0.00  0.00     0.672 C 
ATOM      5  N           0     136.295 134.381 146.181  0.00  0.00    -0.218 N 
ATOM      6  C           0     137.276 134.791 145.181  0.00  0.00     0.151 C 
ATOM      7  C           0     136.711 134.798 143.774  0.00  0.00     0.180 C 
ATOM      8  N           0     135.869 136.001 143.595  0.00  0.00    -0.216 N 
ATOM      9  C           0     134.769 135.630 142.861  0.00  0.00     0.670 C 
ATOM     10  N           0     134.009 136.466 142.210  0.00  0.00    -0.235 N 
ATOM     11  H           0     134.207 137.415 142.226  0.00  0.00     0.174 HD
ATOM     12  H           0     133.245 136.137 141.709  0.00  0.00     0.174 HD
ATOM     13  C           0     135.766 133.644 143.479  0.00  0.00     0.217 C 
ATOM     14  N           0     134.570 134.273 142.897  0.00  0.00    -0.191 N 
ATOM     15  N           0     135.419 132.848 144.657  0.00  0.00    -0.183 N 
ATOM     16  C           0     134.902 131.574 144.128  0.00  0.00     0.150 C 
ATOM     17  C           0     135.803 131.271 142.907  0.00  0.00     0.093 C 
ATOM     18  C           0     136.373 132.647 142.477  0.00  0.00     0.209 C 
ATOM     19  H           0     136.137 134.918 146.974  0.00  0.00     0.178 HD
ATOM     20  H           0     136.059 136.889 143.935  0.00  0.00     0.178 HD
ATOM     21  H           0     133.776 133.808 142.588  0.00  0.00     0.180 HD
ENDROOT
BRANCH   6  22
ATOM     22  C           0     138.464 133.827 145.229  0.00  0.00     0.208 C 
BRANCH  22  23
ATOM     23  O           0     139.533 134.415 146.016  0.00  0.00    -0.302 OA
BRANCH  23  24
ATOM     24  C           0     139.308 134.777 147.294  0.00  0.00     0.362 C 
ATOM     25  N           0     139.431 136.068 147.660  0.00  0.00    -0.337 N 
ATOM     26  C           0     139.187 136.462 149.050  0.00  0.00     0.154 C 
ATOM     27  C           0     139.811 137.078 146.670  0.00  0.00     0.154 C 
ATOM     28  O           0     138.993 133.940 148.115  0.00  0.00    -0.238 OA
ENDBRANCH  23  24
ENDBRANCH  22  23
ENDBRANCH   6  22
BRANCH  18  29
ATOM     29  O           0     135.964 132.962 141.144  0.00  0.00    -0.362 OA
ATOM     30  H           0     135.634 133.871 141.161  0.00  0.00     0.213 HD
ENDBRANCH  18  29
BRANCH  18  31
ATOM     31  O           0     137.799 132.648 142.576  0.00  0.00    -0.362 OA
ATOM     32  H           0     138.020 132.259 143.432  0.00  0.00     0.213 HD
ENDBRANCH  18  31
TORSDOF 5
ENDMDL
MODEL 3
REMARK VINA RESULT:      -7.2      2.077      5.929
REMARK  5 active torsions:
REMARK  status: ('A' for Active; 'I' for Inactive)
REMARK    1  A    between atoms: C_6  and  C_7 
REMARK    2  A    between atoms: C_7  and  O_8 
REMARK    3  A    between atoms: O_8  and  C_9 
REMARK       I    between atoms: C_9  and  N_10 
REMARK    4  A    between atoms: C_25  and  O_26 
REMARK    5  A    between atoms: C_25  and  O_27 
ROOT
ATOM      1  N           0     136.133 134.723 148.079  0.00  0.00    -0.235 N 
ATOM      2  H           0     135.293 134.629 148.555  0.00  0.00     0.174 HD
ATOM      3  H           0     136.699 135.495 148.240  0.00  0.00     0.174 HD
ATOM      4  C           0     136.505 133.810 147.225  0.00  0.00     0.672 C 
ATOM      5  N           0     135.737 132.689 146.965  0.00  0.00    -0.218 N 
ATOM      6  C           0     135.843 132.069 145.648  0.00  0.00     0.151 C 
ATOM      7  C           0     137.278 131.791 145.246  0.00  0.00     0.180 C 
ATOM      8  N           0     137.761 130.593 145.966  0.00  0.00    -0.216 N 
ATOM      9  C           0     139.062 130.829 146.337  0.00  0.00     0.670 C 
ATOM     10  N           0     139.913 129.894 146.657  0.00  0.00    -0.235 N 
ATOM     11  H           0     139.640 128.964 146.642  0.00  0.00     0.174 HD
ATOM     12  H           0     140.820 130.131 146.910  0.00  0.00     0.174 HD
ATOM     13  C           0     138.258 132.880 145.651  0.00  0.00     0.217 C 
ATOM     14  N           0     139.356 132.170 146.328  0.00  0.00    -0.191 N 
ATOM     15  N           0     137.679 133.902 146.524  0.00  0.00    -0.183 N 
ATOM     16  C           0     138.594 135.054 146.436  0.00  0.00     0.150 C 
ATOM     17  C           0     139.024 135.089 144.950  0.00  0.00     0.093 C 
ATOM     18  C           0     138.803 133.645 144.434  0.00  0.00     0.209 C 
ATOM     19  H           0     135.144 132.324 147.641  0.00  0.00     0.178 HD
ATOM     20  H           0     137.252 129.787 146.143  0.00  0.00     0.178 HD
ATOM     21  H           0     140.153 132.579 146.702  0.00  0.00     0.180 HD
ENDROOT
BRANCH   6  22
ATOM     22  C           0     135.213 133.000 144.611  0.00  0.00     0.208 C 
BRANCH  22  23
ATOM     23  O           0     135.344 132.413 143.290  0.00  0.00    -0.302 OA
BRANCH  23  24
ATOM     24  C           0     134.244 132.132 142.566  0.00  0.00     0.362 C 
ATOM     25  N           0     133.562 133.127 141.963  0.00  0.00    -0.337 N 
ATOM     26  C           0     132.365 132.822 141.175  0.00  0.00     0.154 C 
ATOM     27  C           0     134.017 134.513 142.096  0.00  0.00     0.154 C 
ATOM     28  O           0     133.865 130.984 142.456  0.00  0.00    -0.238 OA
ENDBRANCH  23  24
ENDBRANCH  22  23
ENDBRANCH   6  22
BRANCH  18  29
ATOM     29  O           0     140.040 133.078 143.995  0.00  0.00    -0.362 OA
ATOM     30  H           0     140.585 132.953 144.784  0.00  0.00     0.213 HD
ENDBRANCH  18  29
BRANCH  18  31
ATOM     31  O           0     137.846 133.637 143.372  0.00  0.00    -0.362 OA
ATOM     32  H           0     137.975 132.812 142.886  0.00  0.00     0.213 HD
ENDBRANCH  18  31
TORSDOF 5
ENDMDL
MODEL 4
REMARK VINA RESULT:      -7.2      3.229      4.686
REMARK  5 active torsions:
REMARK  status: ('A' for Active; 'I' for Inactive)
REMARK    1  A    between atoms: C_6  and  C_7 
REMARK    2  A    between atoms: C_7  and  O_8 
REMARK    3  A    between atoms: O_8  and  C_9 
REMARK       I    between atoms: C_9  and  N_10 
REMARK    4  A    between atoms: C_25  and  O_26 
REMARK    5  A    between atoms: C_25  and  O_27 
ROOT
ATOM      1  N           0     138.662 130.575 145.693  0.00  0.00    -0.235 N 
ATOM      2  H           0     138.531 129.664 146.002  0.00  0.00     0.174 HD
ATOM      3  H           0     139.543 130.980 145.738  0.00  0.00     0.174 HD
ATOM      4  C           0     137.657 131.252 145.214  0.00  0.00     0.672 C 
ATOM      5  N           0     136.384 130.717 145.125  0.00  0.00    -0.218 N 
ATOM      6  C           0     135.245 131.627 145.193  0.00  0.00     0.151 C 
ATOM      7  C           0     135.364 132.788 144.225  0.00  0.00     0.180 C 
ATOM      8  N           0     135.041 132.317 142.861  0.00  0.00    -0.216 N 
ATOM      9  C           0     135.914 132.929 141.995  0.00  0.00     0.670 C 
ATOM     10  N           0     135.711 133.044 140.711  0.00  0.00    -0.235 N 
ATOM     11  H           0     134.903 132.686 140.314  0.00  0.00     0.174 HD
ATOM     12  H           0     136.370 133.489 140.155  0.00  0.00     0.174 HD
ATOM     13  C           0     136.772 133.346 144.095  0.00  0.00     0.217 C 
ATOM     14  N           0     137.025 133.404 142.646  0.00  0.00    -0.191 N 
ATOM     15  N           0     137.791 132.543 144.772  0.00  0.00    -0.183 N 
ATOM     16  C           0     138.954 133.435 144.924  0.00  0.00     0.150 C 
ATOM     17  C           0     138.337 134.815 145.257  0.00  0.00     0.093 C 
ATOM     18  C           0     136.891 134.753 144.703  0.00  0.00     0.209 C 
ATOM     19  H           0     136.252 129.761 145.018  0.00  0.00     0.178 HD
ATOM     20  H           0     134.340 131.691 142.622  0.00  0.00     0.178 HD
ATOM     21  H           0     137.837 133.725 142.223  0.00  0.00     0.180 HD
ENDROOT
BRANCH   6  22
ATOM     22  C           0     135.140 132.181 146.615  0.00  0.00     0.208 C 
BRANCH  22  23
ATOM     23  O           0     135.354 131.108 147.570  0.00  0.00    -0.302 OA
BRANCH  23  24
ATOM     24  C           0     134.449 130.881 148.540  0.00  0.00     0.362 C 
ATOM     25  N           0     134.065 129.619 148.822  0.00  0.00    -0.337 N 
ATOM     26  C           0     133.080 129.371 149.877  0.00  0.00     0.154 C 
ATOM     27  C           0     134.631 128.496 148.071  0.00  0.00     0.154 C 
ATOM     28  O           0     133.978 131.811 149.163  0.00  0.00    -0.238 OA
ENDBRANCH  23  24
ENDBRANCH  22  23
ENDBRANCH   6  22
BRANCH  18  29
ATOM     29  O           0     136.698 135.753 143.700  0.00  0.00    -0.362 OA
ATOM     30  H           0     136.363 136.540 144.151  0.00  0.00     0.213 HD
ENDBRANCH  18  29
BRANCH  18  31
ATOM     31  O           0     135.945 134.919 145.762  0.00  0.00    -0.362 OA
ATOM     32  H           0     135.415 135.697 145.544  0.00  0.00     0.213 HD
ENDBRANCH  18  31
TORSDOF 5
ENDMDL
MODEL 5
REMARK VINA RESULT:      -7.1      1.880      2.292
REMARK  5 active torsions:
REMARK  status: ('A' for Active; 'I' for Inactive)
REMARK    1  A    between atoms: C_6  and  C_7 
REMARK    2  A    between atoms: C_7  and  O_8 
REMARK    3  A    between atoms: O_8  and  C_9 
REMARK       I    between atoms: C_9  and  N_10 
REMARK    4  A    between atoms: C_25  and  O_26 
REMARK    5  A    between atoms: C_25  and  O_27 
ROOT
ATOM      1  N           0     135.938 134.633 147.054  0.00  0.00    -0.235 N 
ATOM      2  H           0     136.312 135.486 147.324  0.00  0.00     0.174 HD
ATOM      3  H           0     135.491 134.070 147.707  0.00  0.00     0.174 HD
ATOM      4  C           0     136.031 134.243 145.814  0.00  0.00     0.672 C 
ATOM      5  N           0     136.653 135.011 144.845  0.00  0.00    -0.218 N 
ATOM      6  C           0     137.270 134.329 143.712  0.00  0.00     0.151 C 
ATOM      7  C           0     136.331 133.346 143.039  0.00  0.00     0.180 C 
ATOM      8  N           0     135.368 134.092 142.200  0.00  0.00    -0.216 N 
ATOM      9  C           0     134.143 133.485 142.338  0.00  0.00     0.670 C 
ATOM     10  N           0     133.157 133.627 141.497  0.00  0.00    -0.235 N 
ATOM     11  H           0     133.264 134.191 140.715  0.00  0.00     0.174 HD
ATOM     12  H           0     132.316 133.169 141.654  0.00  0.00     0.174 HD
ATOM     13  C           0     135.451 132.568 144.003  0.00  0.00     0.217 C 
ATOM     14  N           0     134.086 132.710 143.470  0.00  0.00    -0.191 N 
ATOM     15  N           0     135.525 133.043 145.386  0.00  0.00    -0.183 N 
ATOM     16  C           0     134.997 131.939 146.206  0.00  0.00     0.150 C 
ATOM     17  C           0     135.540 130.661 145.524  0.00  0.00     0.093 C 
ATOM     18  C           0     135.837 131.081 144.062  0.00  0.00     0.209 C 
ATOM     19  H           0     136.677 135.979 144.917  0.00  0.00     0.178 HD
ATOM     20  H           0     135.564 134.868 141.654  0.00  0.00     0.178 HD
ATOM     21  H           0     133.283 132.321 143.851  0.00  0.00     0.180 HD
ENDROOT
BRANCH   6  22
ATOM     22  C           0     138.504 133.571 144.204  0.00  0.00     0.208 C 
BRANCH  22  23
ATOM     23  O           0     139.199 134.371 145.197  0.00  0.00    -0.302 OA
BRANCH  23  24
ATOM     24  C           0     139.535 133.828 146.383  0.00  0.00     0.362 C 
ATOM     25  N           0     139.600 134.603 147.484  0.00  0.00    -0.337 N 
ATOM     26  C           0     139.966 134.014 148.775  0.00  0.00     0.154 C 
ATOM     27  C           0     139.308 136.036 147.391  0.00  0.00     0.154 C 
ATOM     28  O           0     139.778 132.641 146.461  0.00  0.00    -0.238 OA
ENDBRANCH  23  24
ENDBRANCH  22  23
ENDBRANCH   6  22
BRANCH  18  29
ATOM     29  O           0     135.041 130.318 143.152  0.00  0.00    -0.362 OA
ATOM     30  H           0     134.493 130.949 142.665  0.00  0.00     0.213 HD
ENDBRANCH  18  29
BRANCH  18  31
ATOM     31  O           0     137.226 130.916 143.770  0.00  0.00    -0.362 OA
ATOM     32  H           0     137.445 131.560 143.083  0.00  0.00     0.213 HD
ENDBRANCH  18  31
TORSDOF 5
ENDMDL
MODEL 6
REMARK VINA RESULT:      -6.9      2.142      5.733
REMARK  5 active torsions:
REMARK  status: ('A' for Active; 'I' for Inactive)
REMARK    1  A    between atoms: C_6  and  C_7 
REMARK    2  A    between atoms: C_7  and  O_8 
REMARK    3  A    between atoms: O_8  and  C_9 
REMARK       I    between atoms: C_9  and  N_10 
REMARK    4  A    between atoms: C_25  and  O_26 
REMARK    5  A    between atoms: C_25  and  O_27 
ROOT
ATOM      1  N           0     137.874 135.230 147.742  0.00  0.00    -0.235 N 
ATOM      2  H           0     137.576 136.127 147.526  0.00  0.00     0.174 HD
ATOM      3  H           0     138.615 135.098 148.355  0.00  0.00     0.174 HD
ATOM      4  C           0     137.275 134.199 147.214  0.00  0.00     0.672 C 
ATOM      5  N           0     136.210 134.335 146.340  0.00  0.00    -0.218 N 
ATOM      6  C           0     135.999 133.292 145.341  0.00  0.00     0.151 C 
ATOM      7  C           0     135.972 131.901 145.943  0.00  0.00     0.180 C 
ATOM      8  N           0     134.666 131.682 146.602  0.00  0.00    -0.216 N 
ATOM      9  C           0     134.900 130.995 147.768  0.00  0.00     0.670 C 
ATOM     10  N           0     133.991 130.321 148.415  0.00  0.00    -0.235 N 
ATOM     11  H           0     133.083 130.284 148.078  0.00  0.00     0.174 HD
ATOM     12  H           0     134.224 129.857 149.235  0.00  0.00     0.174 HD
ATOM     13  C           0     136.983 131.688 147.059  0.00  0.00     0.217 C 
ATOM     14  N           0     136.210 131.104 148.166  0.00  0.00    -0.191 N 
ATOM     15  N           0     137.662 132.913 147.483  0.00  0.00    -0.183 N 
ATOM     16  C           0     138.868 132.462 148.201  0.00  0.00     0.150 C 
ATOM     17  C           0     139.359 131.236 147.394  0.00  0.00     0.093 C 
ATOM     18  C           0     138.105 130.723 146.640  0.00  0.00     0.209 C 
ATOM     19  H           0     135.619 135.103 146.390  0.00  0.00     0.178 HD
ATOM     20  H           0     133.802 131.971 146.271  0.00  0.00     0.178 HD
ATOM     21  H           0     136.563 130.839 149.030  0.00  0.00     0.180 HD
ENDROOT
BRANCH   6  22
ATOM     22  C           0     137.127 133.360 144.310  0.00  0.00     0.208 C 
BRANCH  22  23
ATOM     23  O           0     136.623 133.938 143.078  0.00  0.00    -0.302 OA
BRANCH  23  24
ATOM     24  C           0     135.573 133.375 142.450  0.00  0.00     0.362 C 
ATOM     25  N           0     134.439 134.081 142.268  0.00  0.00    -0.337 N 
ATOM     26  C           0     133.296 133.470 141.586  0.00  0.00     0.154 C 
ATOM     27  C           0     134.348 135.461 142.754  0.00  0.00     0.154 C 
ATOM     28  O           0     135.647 132.232 142.047  0.00  0.00    -0.238 OA
ENDBRANCH  23  24
ENDBRANCH  22  23
ENDBRANCH   6  22
BRANCH  18  29
ATOM     29  O           0     137.795 129.386 147.040  0.00  0.00    -0.362 OA
ATOM     30  H           0     137.876 129.357 148.003  0.00  0.00     0.213 HD
ENDBRANCH  18  29
BRANCH  18  31
ATOM     31  O           0     138.314 130.786 145.228  0.00  0.00    -0.362 OA
ATOM     32  H           0     138.705 129.943 144.965  0.00  0.00     0.213 HD
ENDBRANCH  18  31
TORSDOF 5
ENDMDL
MODEL 7
REMARK VINA RESULT:      -6.9      2.282      6.240
REMARK  5 active torsions:
REMARK  status: ('A' for Active; 'I' for Inactive)
REMARK    1  A    between atoms: C_6  and  C_7 
REMARK    2  A    between atoms: C_7  and  O_8 
REMARK    3  A    between atoms: O_8  and  C_9 
REMARK       I    between atoms: C_9  and  N_10 
REMARK    4  A    between atoms: C_25  and  O_26 
REMARK    5  A    between atoms: C_25  and  O_27 
ROOT
ATOM      1  N           0     134.173 131.867 148.399  0.00  0.00    -0.235 N 
ATOM      2  H           0     133.384 131.317 148.271  0.00  0.00     0.174 HD
ATOM      3  H           0     134.248 132.433 149.183  0.00  0.00     0.174 HD
ATOM      4  C           0     135.135 131.841 147.519  0.00  0.00     0.672 C 
ATOM      5  N           0     135.078 131.045 146.388  0.00  0.00    -0.218 N 
ATOM      6  C           0     135.799 131.484 145.198  0.00  0.00     0.151 C 
ATOM      7  C           0     137.245 131.834 145.485  0.00  0.00     0.180 C 
ATOM      8  N           0     138.028 130.588 145.628  0.00  0.00    -0.216 N 
ATOM      9  C           0     138.921 130.774 146.655  0.00  0.00     0.670 C 
ATOM     10  N           0     139.994 130.055 146.831  0.00  0.00    -0.235 N 
ATOM     11  H           0     140.202 129.336 146.215  0.00  0.00     0.174 HD
ATOM     12  H           0     140.584 130.241 147.579  0.00  0.00     0.174 HD
ATOM     13  C           0     137.460 132.553 146.807  0.00  0.00     0.217 C 
ATOM     14  N           0     138.544 131.812 147.471  0.00  0.00    -0.191 N 
ATOM     15  N           0     136.266 132.603 147.653  0.00  0.00    -0.183 N 
ATOM     16  C           0     136.522 133.680 148.626  0.00  0.00     0.150 C 
ATOM     17  C           0     137.254 134.771 147.807  0.00  0.00     0.093 C 
ATOM     18  C           0     137.877 134.019 146.604  0.00  0.00     0.209 C 
ATOM     19  H           0     134.572 130.217 146.387  0.00  0.00     0.178 HD
ATOM     20  H           0     137.928 129.785 145.094  0.00  0.00     0.178 HD
ATOM     21  H           0     138.929 132.021 148.337  0.00  0.00     0.180 HD
ENDROOT
BRANCH   6  22
ATOM     22  C           0     135.099 132.717 144.623  0.00  0.00     0.208 C 
BRANCH  22  23
ATOM     23  O           0     135.206 132.704 143.175  0.00  0.00    -0.302 OA
BRANCH  23  24
ATOM     24  C           0     134.139 132.370 142.425  0.00  0.00     0.362 C 
ATOM     25  N           0     133.446 133.326 141.774  0.00  0.00    -0.337 N 
ATOM     26  C           0     132.285 132.964 140.957  0.00  0.00     0.154 C 
ATOM     27  C           0     133.853 134.729 141.885  0.00  0.00     0.154 C 
ATOM     28  O           0     133.800 131.207 142.332  0.00  0.00    -0.238 OA
ENDBRANCH  23  24
ENDBRANCH  22  23
ENDBRANCH   6  22
BRANCH  18  29
ATOM     29  O           0     139.301 134.144 146.621  0.00  0.00    -0.362 OA
ATOM     30  H           0     139.535 134.768 145.920  0.00  0.00     0.213 HD
ENDBRANCH  18  29
BRANCH  18  31
ATOM     31  O           0     137.347 134.521 145.375  0.00  0.00    -0.362 OA
ATOM     32  H           0     137.864 135.305 145.147  0.00  0.00     0.213 HD
ENDBRANCH  18  31
TORSDOF 5
ENDMDL
MODEL 8
REMARK VINA RESULT:      -6.7     10.412     13.322
REMARK  5 active torsions:
REMARK  status: ('A' for Active; 'I' for Inactive)
REMARK    1  A    between atoms: C_6  and  C_7 
REMARK    2  A    between atoms: C_7  and  O_8 
REMARK    3  A    between atoms: O_8  and  C_9 
REMARK       I    between atoms: C_9  and  N_10 
REMARK    4  A    between atoms: C_25  and  O_26 
REMARK    5  A    between atoms: C_25  and  O_27 
ROOT
ATOM      1  N           0     128.906 133.799 131.968  0.00  0.00    -0.235 N 
ATOM      2  H           0     128.226 133.325 131.464  0.00  0.00     0.174 HD
ATOM      3  H           0     129.022 134.755 131.847  0.00  0.00     0.174 HD
ATOM      4  C           0     129.661 133.153 132.811  0.00  0.00     0.672 C 
ATOM      5  N           0     129.530 131.791 133.023  0.00  0.00    -0.218 N 
ATOM      6  C           0     130.710 131.041 133.442  0.00  0.00     0.151 C 
ATOM      7  C           0     131.408 131.664 134.635  0.00  0.00     0.180 C 
ATOM      8  N           0     130.644 131.351 135.862  0.00  0.00    -0.216 N 
ATOM      9  C           0     130.655 132.473 136.654  0.00  0.00     0.670 C 
ATOM     10  N           0     130.408 132.468 137.934  0.00  0.00    -0.235 N 
ATOM     11  H           0     130.199 131.635 138.384  0.00  0.00     0.174 HD
ATOM     12  H           0     130.433 133.298 138.436  0.00  0.00     0.174 HD
ATOM     13  C           0     131.448 133.183 134.607  0.00  0.00     0.217 C 
ATOM     14  N           0     130.960 133.600 135.931  0.00  0.00    -0.191 N 
ATOM     15  N           0     130.640 133.776 133.541  0.00  0.00    -0.183 N 
ATOM     16  C           0     131.144 135.153 133.388  0.00  0.00     0.150 C 
ATOM     17  C           0     132.676 135.022 133.572  0.00  0.00     0.093 C 
ATOM     18  C           0     132.873 133.716 134.383  0.00  0.00     0.209 C 
ATOM     19  H           0     128.676 131.348 132.898  0.00  0.00     0.178 HD
ATOM     20  H           0     130.213 130.508 136.070  0.00  0.00     0.178 HD
ATOM     21  H           0     130.871 134.515 136.243  0.00  0.00     0.180 HD
ENDROOT
BRANCH   6  22
ATOM     22  C           0     131.696 130.977 132.273  0.00  0.00     0.208 C 
BRANCH  22  23
ATOM     23  O           0     131.647 129.658 131.670  0.00  0.00    -0.302 OA
BRANCH  23  24
ATOM     24  C           0     131.904 128.567 132.415  0.00  0.00     0.362 C 
ATOM     25  N           0     131.062 127.515 132.384  0.00  0.00    -0.337 N 
ATOM     26  C           0     131.341 126.327 133.195  0.00  0.00     0.154 C 
ATOM     27  C           0     129.865 127.559 131.541  0.00  0.00     0.154 C 
ATOM     28  O           0     132.896 128.529 133.115  0.00  0.00    -0.238 OA
ENDBRANCH  23  24
ENDBRANCH  22  23
ENDBRANCH   6  22
BRANCH  18  29
ATOM     29  O           0     133.508 133.997 135.633  0.00  0.00    -0.362 OA
ATOM     30  H           0     132.803 134.202 136.264  0.00  0.00     0.213 HD
ENDBRANCH  18  29
BRANCH  18  31
ATOM     31  O           0     133.643 132.776 133.632  0.00  0.00    -0.362 OA
ATOM     32  H           0     133.019 132.146 133.249  0.00  0.00     0.213 HD
ENDBRANCH  18  31
TORSDOF 5
ENDMDL
MODEL 9
REMARK VINA RESULT:      -6.7     10.873     12.562
REMARK  5 active torsions:
REMARK  status: ('A' for Active; 'I' for Inactive)
REMARK    1  A    between atoms: C_6  and  C_7 
REMARK    2  A    between atoms: C_7  and  O_8 
REMARK    3  A    between atoms: O_8  and  C_9 
REMARK       I    between atoms: C_9  and  N_10 
REMARK    4  A    between atoms: C_25  and  O_26 
REMARK    5  A    between atoms: C_25  and  O_27 
ROOT
ATOM      1  N           0     134.184 133.495 132.118  0.00  0.00    -0.235 N 
ATOM      2  H           0     134.171 132.840 131.403  0.00  0.00     0.174 HD
ATOM      3  H           0     135.024 133.893 132.397  0.00  0.00     0.174 HD
ATOM      4  C           0     133.072 133.846 132.702  0.00  0.00     0.672 C 
ATOM      5  N           0     131.848 133.312 132.337  0.00  0.00    -0.218 N 
ATOM      6  C           0     130.800 133.233 133.349  0.00  0.00     0.151 C 
ATOM      7  C           0     130.573 134.552 134.062  0.00  0.00     0.180 C 
ATOM      8  N           0     129.801 135.454 133.180  0.00  0.00    -0.216 N 
ATOM      9  C           0     130.319 136.718 133.325  0.00  0.00     0.670 C 
ATOM     10  N           0     129.686 137.810 132.999  0.00  0.00    -0.235 N 
ATOM     11  H           0     128.791 137.760 132.629  0.00  0.00     0.174 HD
ATOM     12  H           0     130.111 138.673 133.128  0.00  0.00     0.174 HD
ATOM     13  C           0     131.848 135.328 134.352  0.00  0.00     0.217 C 
ATOM     14  N           0     131.585 136.688 133.856  0.00  0.00    -0.191 N 
ATOM     15  N           0     133.041 134.762 133.721  0.00  0.00    -0.183 N 
ATOM     16  C           0     134.181 135.342 134.453  0.00  0.00     0.150 C 
ATOM     17  C           0     133.712 135.378 135.927  0.00  0.00     0.093 C 
ATOM     18  C           0     132.164 135.372 135.856  0.00  0.00     0.209 C 
ATOM     19  H           0     131.692 133.000 131.431  0.00  0.00     0.178 HD
ATOM     20  H           0     129.063 135.200 132.605  0.00  0.00     0.178 HD
ATOM     21  H           0     132.200 137.438 133.898  0.00  0.00     0.180 HD
ENDROOT
BRANCH   6  22
ATOM     22  C           0     131.190 132.175 134.383  0.00  0.00     0.208 C 
BRANCH  22  23
ATOM     23  O           0     131.571 130.951 133.703  0.00  0.00    -0.302 OA
BRANCH  23  24
ATOM     24  C           0     132.798 130.429 133.892  0.00  0.00     0.362 C 
ATOM     25  N           0     133.482 129.919 132.849  0.00  0.00    -0.337 N 
ATOM     26  C           0     134.817 129.352 133.054  0.00  0.00     0.154 C 
ATOM     27  C           0     132.890 129.931 131.509  0.00  0.00     0.154 C 
ATOM     28  O           0     133.289 130.419 135.003  0.00  0.00    -0.238 OA
ENDBRANCH  23  24
ENDBRANCH  22  23
ENDBRANCH   6  22
BRANCH  18  29
ATOM     29  O           0     131.632 136.560 136.447  0.00  0.00    -0.362 OA
ATOM     30  H           0     131.516 136.375 137.389  0.00  0.00     0.213 HD
ENDBRANCH  18  29
BRANCH  18  31
ATOM     31  O           0     131.640 134.213 136.508  0.00  0.00    -0.362 OA
ATOM     32  H           0     132.375 133.593 136.609  0.00  0.00     0.213 HD
ENDBRANCH  18  31
TORSDOF 5
ENDMDL
