# created with PyMOL 2.3.4
@<TRIPOS>MOLECULE
ligand_out_0001
33 35 1                 
SMALL
USER_CHARGES
@<TRIPOS>ATOM
1	   N	131.595	132.126	134.963	N.3	1	UNK0	-0.235	
2	   N	131.231	134.297	135.791	N.3	1	UNK0	-0.218	
3	   N	131.182	136.992	134.289	N.3	1	UNK0	-0.216	
4	   N	130.600	137.657	132.095	N.3	1	UNK0	-0.235	
5	   N	132.065	135.852	132.533	N.3	1	UNK0	-0.191	
6	   N	132.626	133.968	133.948	N.3	1	UNK0	-0.179	
7	   N	133.526	136.069	139.498	N.pl3	1	UNK0	-0.346	
8	   C	131.809	133.409	134.900	C.3	1	UNK0	0.672	
9	   C	131.941	135.536	136.095	C.3	1	UNK0	0.151	
10	   C	132.358	136.289	134.847	C.3	1	UNK0	0.180	
11	   C	131.243	136.881	132.921	C.3	1	UNK0	0.670	
12	   C	132.823	135.398	133.709	C.3	1	UNK0	0.217	
13	   C	133.516	133.261	133.015	C.3	1	UNK0	0.106	
14	   C	132.752	132.886	131.744	C.3	1	UNK0	0.033	
15	   C	134.665	134.233	132.673	C.3	1	UNK0	0.098	
16	   C	134.337	135.539	133.448	C.3	1	UNK0	0.210	
17	   C	133.192	135.200	136.910	C.2	1	UNK0	0.208	
18	   C	133.051	134.824	139.300	C.2	1	UNK0	0.358	
19	   O	132.823	134.381	138.050	O.2	1	UNK0	-0.302	
20	   O	132.829	134.100	140.251	O.co2	1	UNK0	-0.239	
21	   O	134.616	136.689	132.646	O.2	1	UNK0	-0.362	
22	   O	135.057	135.593	134.681	O.2	1	UNK0	-0.362	
23	   H	131.013	131.764	135.650	 H	1	UNK0	0.174	
24	   H	132.012	131.532	134.319	 H	1	UNK0	0.174	
25	   H	130.034	138.367	132.436	 H	1	UNK0	0.174	
26	   H	130.687	137.525	131.138	 H	1	UNK0	0.174	
27	   H	130.374	134.100	136.202	 H	1	UNK0	0.178	
28	   H	130.492	137.448	134.797	 H	1	UNK0	0.178	
29	   H	132.135	135.490	131.636	 H	1	UNK0	0.180	
30	   H	133.705	136.646	138.738	 H	1	UNK0	0.161	
31	   H	133.691	136.388	140.399	 H	1	UNK0	0.161	
32	   H	135.326	136.439	132.039	 H	1	UNK0	0.213	
33	   H	135.322	134.686	134.889	 H	1	UNK0	0.213	
@<TRIPOS>BOND
1 1 8 1
2 1 23 1
3 1 24 1
4 2 9 1
5 2 27 1
6 3 11 1
7 3 28 1
8 4 25 1
9 4 26 1
10 5 29 1
11 6 13 1
12 7 30 1
13 7 31 1
14 2 8 1
15 6 8 1
16 9 10 1
17 9 17 1
18 3 10 1
19 10 12 1
20 4 11 1
21 5 11 1
22 5 12 1
23 6 12 1
24 12 16 1
25 13 14 1
26 13 15 1
27 15 16 1
28 16 21 2
29 16 22 2
30 17 19 2
31 7 18 1
32 18 20 2
33 18 19 2
34 21 32 1
35 22 33 1
@<TRIPOS>SUBSTRUCTURE
1	UNK0	1	GROUP	1 ****	UNK
