MODEL 1
REMARK VINA RESULT:      -7.1      0.000      0.000
REMARK  5 active torsions:
REMARK  status: ('A' for Active; 'I' for Inactive)
REMARK    1  A    between atoms: C_6  and  C_7 
REMARK    2  A    between atoms: C_7  and  O_8 
REMARK    3  A    between atoms: O_8  and  C_9 
REMARK       I    between atoms: C_9  and  N_10 
REMARK    4  A    between atoms: C_24  and  O_25 
REMARK    5  A    between atoms: C_24  and  O_26 
ROOT
ATOM      1  N           0     131.595 132.126 134.963  0.00  0.00    -0.235 N 
ATOM      2  H           0     131.013 131.764 135.650  0.00  0.00     0.174 HD
ATOM      3  H           0     132.012 131.532 134.319  0.00  0.00     0.174 HD
ATOM      4  C           0     131.809 133.409 134.900  0.00  0.00     0.672 C 
ATOM      5  N           0     131.231 134.297 135.791  0.00  0.00    -0.218 N 
ATOM      6  C           0     131.941 135.536 136.095  0.00  0.00     0.151 C 
ATOM      7  C           0     132.358 136.289 134.847  0.00  0.00     0.180 C 
ATOM      8  N           0     131.182 136.992 134.289  0.00  0.00    -0.216 N 
ATOM      9  C           0     131.243 136.881 132.921  0.00  0.00     0.670 C 
ATOM     10  N           0     130.600 137.657 132.095  0.00  0.00    -0.235 N 
ATOM     11  H           0     130.034 138.367 132.436  0.00  0.00     0.174 HD
ATOM     12  H           0     130.687 137.525 131.138  0.00  0.00     0.174 HD
ATOM     13  C           0     132.823 135.398 133.709  0.00  0.00     0.217 C 
ATOM     14  N           0     132.065 135.852 132.533  0.00  0.00    -0.191 N 
ATOM     15  N           0     132.626 133.968 133.948  0.00  0.00    -0.179 N 
ATOM     16  C           0     133.516 133.261 133.015  0.00  0.00     0.106 C 
ATOM     17  C           0     132.752 132.886 131.744  0.00  0.00     0.033 C 
ATOM     18  C           0     134.665 134.233 132.673  0.00  0.00     0.098 C 
ATOM     19  C           0     134.337 135.539 133.448  0.00  0.00     0.210 C 
ATOM     20  H           0     130.374 134.100 136.202  0.00  0.00     0.178 HD
ATOM     21  H           0     130.492 137.448 134.797  0.00  0.00     0.178 HD
ATOM     22  H           0     132.135 135.490 131.636  0.00  0.00     0.180 HD
ENDROOT
BRANCH   6  23
ATOM     23  C           0     133.192 135.200 136.910  0.00  0.00     0.208 C 
BRANCH  23  24
ATOM     24  O           0     132.823 134.381 138.050  0.00  0.00    -0.302 OA
BRANCH  24  25
ATOM     25  C           0     133.051 134.824 139.300  0.00  0.00     0.358 C 
ATOM     26  N           0     133.526 136.069 139.498  0.00  0.00    -0.346 N 
ATOM     27  H           0     133.705 136.646 138.738  0.00  0.00     0.161 HD
ATOM     28  H           0     133.691 136.388 140.399  0.00  0.00     0.161 HD
ATOM     29  O           0     132.829 134.100 140.251  0.00  0.00    -0.239 OA
ENDBRANCH  24  25
ENDBRANCH  23  24
ENDBRANCH   6  23
BRANCH  19  30
ATOM     30  O           0     134.616 136.689 132.646  0.00  0.00    -0.362 OA
ATOM     31  H           0     135.326 136.439 132.039  0.00  0.00     0.213 HD
ENDBRANCH  19  30
BRANCH  19  32
ATOM     32  O           0     135.057 135.593 134.681  0.00  0.00    -0.362 OA
ATOM     33  H           0     135.322 134.686 134.889  0.00  0.00     0.213 HD
ENDBRANCH  19  32
TORSDOF 5
ENDMDL
MODEL 2
REMARK VINA RESULT:      -7.0      8.452     13.117
REMARK  5 active torsions:
REMARK  status: ('A' for Active; 'I' for Inactive)
REMARK    1  A    between atoms: C_6  and  C_7 
REMARK    2  A    between atoms: C_7  and  O_8 
REMARK    3  A    between atoms: O_8  and  C_9 
REMARK       I    between atoms: C_9  and  N_10 
REMARK    4  A    between atoms: C_24  and  O_25 
REMARK    5  A    between atoms: C_24  and  O_26 
ROOT
ATOM      1  N           0     139.543 130.571 146.127  0.00  0.00    -0.235 N 
ATOM      2  H           0     140.277 130.696 145.505  0.00  0.00     0.174 HD
ATOM      3  H           0     139.586 129.866 146.792  0.00  0.00     0.174 HD
ATOM      4  C           0     138.503 131.355 146.075  0.00  0.00     0.672 C 
ATOM      5  N           0     138.399 132.379 145.150  0.00  0.00    -0.218 N 
ATOM      6  C           0     137.067 132.781 144.707  0.00  0.00     0.151 C 
ATOM      7  C           0     136.129 133.063 145.865  0.00  0.00     0.180 C 
ATOM      8  N           0     136.444 134.393 146.430  0.00  0.00    -0.216 N 
ATOM      9  C           0     136.344 134.298 147.797  0.00  0.00     0.670 C 
ATOM     10  N           0     136.197 135.319 148.593  0.00  0.00    -0.235 N 
ATOM     11  H           0     136.153 136.217 148.229  0.00  0.00     0.174 HD
ATOM     12  H           0     136.133 135.181 149.551  0.00  0.00     0.174 HD
ATOM     13  C           0     136.294 132.119 147.043  0.00  0.00     0.217 C 
ATOM     14  N           0     136.417 132.993 148.219  0.00  0.00    -0.191 N 
ATOM     15  N           0     137.438 131.214 146.932  0.00  0.00    -0.179 N 
ATOM     16  C           0     137.190 130.106 147.866  0.00  0.00     0.106 C 
ATOM     17  C           0     137.876 130.386 149.204  0.00  0.00     0.033 C 
ATOM     18  C           0     135.661 130.026 148.063  0.00  0.00     0.098 C 
ATOM     19  C           0     135.079 131.184 147.206  0.00  0.00     0.210 C 
ATOM     20  H           0     139.192 132.818 144.805  0.00  0.00     0.178 HD
ATOM     21  H           0     136.679 135.189 145.927  0.00  0.00     0.178 HD
ATOM     22  H           0     136.528 132.700 149.137  0.00  0.00     0.180 HD
ENDROOT
BRANCH   6  23
ATOM     23  C           0     136.471 131.660 143.853  0.00  0.00     0.208 C 
BRANCH  23  24
ATOM     24  O           0     135.194 132.089 143.312  0.00  0.00    -0.302 OA
BRANCH  24  25
ATOM     25  C           0     135.145 133.086 142.408  0.00  0.00     0.358 C 
ATOM     26  N           0     135.853 132.993 141.265  0.00  0.00    -0.346 N 
ATOM     27  H           0     136.399 132.209 141.095  0.00  0.00     0.161 HD
ATOM     28  H           0     135.818 133.712 140.614  0.00  0.00     0.161 HD
ATOM     29  O           0     134.462 134.067 142.623  0.00  0.00    -0.239 OA
ENDBRANCH  24  25
ENDBRANCH  23  24
ENDBRANCH   6  23
BRANCH  19  30
ATOM     30  O           0     134.012 131.839 147.896  0.00  0.00    -0.362 OA
ATOM     31  H           0     133.195 131.397 147.630  0.00  0.00     0.213 HD
ENDBRANCH  19  30
BRANCH  19  32
ATOM     32  O           0     134.641 130.702 145.934  0.00  0.00    -0.362 OA
ATOM     33  H           0     133.742 130.367 146.056  0.00  0.00     0.213 HD
ENDBRANCH  19  32
TORSDOF 5
ENDMDL
MODEL 3
REMARK VINA RESULT:      -6.8      9.700     13.562
REMARK  5 active torsions:
REMARK  status: ('A' for Active; 'I' for Inactive)
REMARK    1  A    between atoms: C_6  and  C_7 
REMARK    2  A    between atoms: C_7  and  O_8 
REMARK    3  A    between atoms: O_8  and  C_9 
REMARK       I    between atoms: C_9  and  N_10 
REMARK    4  A    between atoms: C_24  and  O_25 
REMARK    5  A    between atoms: C_24  and  O_26 
ROOT
ATOM      1  N           0     135.963 134.481 147.033  0.00  0.00    -0.235 N 
ATOM      2  H           0     135.413 135.123 146.558  0.00  0.00     0.174 HD
ATOM      3  H           0     136.558 134.780 147.739  0.00  0.00     0.174 HD
ATOM      4  C           0     135.898 133.216 146.728  0.00  0.00     0.672 C 
ATOM      5  N           0     135.060 132.740 145.735  0.00  0.00    -0.218 N 
ATOM      6  C           0     135.453 131.531 145.016  0.00  0.00     0.151 C 
ATOM      7  C           0     135.810 130.390 145.949  0.00  0.00     0.180 C 
ATOM      8  N           0     134.568 129.786 146.475  0.00  0.00    -0.216 N 
ATOM      9  C           0     134.779 129.489 147.800  0.00  0.00     0.670 C 
ATOM     10  N           0     134.063 128.641 148.483  0.00  0.00    -0.235 N 
ATOM     11  H           0     133.327 128.174 148.058  0.00  0.00     0.174 HD
ATOM     12  H           0     134.266 128.478 149.417  0.00  0.00     0.174 HD
ATOM     13  C           0     136.563 130.820 147.196  0.00  0.00     0.217 C 
ATOM     14  N           0     135.838 130.196 148.314  0.00  0.00    -0.191 N 
ATOM     15  N           0     136.660 132.270 147.369  0.00  0.00    -0.179 N 
ATOM     16  C           0     137.766 132.507 148.308  0.00  0.00     0.106 C 
ATOM     17  C           0     137.224 132.637 149.733  0.00  0.00     0.033 C 
ATOM     18  C           0     138.703 131.284 148.211  0.00  0.00     0.098 C 
ATOM     19  C           0     138.027 130.335 147.182  0.00  0.00     0.210 C 
ATOM     20  H           0     134.232 133.199 145.522  0.00  0.00     0.178 HD
ATOM     21  H           0     133.751 129.627 145.975  0.00  0.00     0.178 HD
ATOM     22  H           0     136.069 130.269 149.253  0.00  0.00     0.180 HD
ENDROOT
BRANCH   6  23
ATOM     23  C           0     136.665 131.849 144.139  0.00  0.00     0.208 C 
BRANCH  23  24
ATOM     24  O           0     136.282 132.798 143.109  0.00  0.00    -0.302 OA
BRANCH  24  25
ATOM     25  C           0     136.801 134.041 143.111  0.00  0.00     0.358 C 
ATOM     26  N           0     137.878 134.322 142.352  0.00  0.00    -0.346 N 
ATOM     27  H           0     138.281 133.629 141.805  0.00  0.00     0.161 HD
ATOM     28  H           0     138.252 135.218 142.354  0.00  0.00     0.161 HD
ATOM     29  O           0     136.297 134.908 143.796  0.00  0.00    -0.239 OA
ENDBRANCH  24  25
ENDBRANCH  23  24
ENDBRANCH   6  23
BRANCH  19  30
ATOM     30  O           0     138.124 128.974 147.607  0.00  0.00    -0.362 OA
ATOM     31  H           0     138.866 128.927 148.224  0.00  0.00     0.213 HD
ENDBRANCH  19  30
BRANCH  19  32
ATOM     32  O           0     138.600 130.504 145.883  0.00  0.00    -0.362 OA
ATOM     33  H           0     137.888 130.803 145.301  0.00  0.00     0.213 HD
ENDBRANCH  19  32
TORSDOF 5
ENDMDL
MODEL 4
REMARK VINA RESULT:      -6.8      2.237      3.209
REMARK  5 active torsions:
REMARK  status: ('A' for Active; 'I' for Inactive)
REMARK    1  A    between atoms: C_6  and  C_7 
REMARK    2  A    between atoms: C_7  and  O_8 
REMARK    3  A    between atoms: O_8  and  C_9 
REMARK       I    between atoms: C_9  and  N_10 
REMARK    4  A    between atoms: C_24  and  O_25 
REMARK    5  A    between atoms: C_24  and  O_26 
ROOT
ATOM      1  N           0     133.899 132.360 132.790  0.00  0.00    -0.235 N 
ATOM      2  H           0     133.763 131.543 132.285  0.00  0.00     0.174 HD
ATOM      3  H           0     134.795 132.714 132.905  0.00  0.00     0.174 HD
ATOM      4  C           0     132.880 132.985 133.306  0.00  0.00     0.672 C 
ATOM      5  N           0     131.583 132.523 133.163  0.00  0.00    -0.218 N 
ATOM      6  C           0     130.615 132.835 134.211  0.00  0.00     0.151 C 
ATOM      7  C           0     130.579 134.313 134.547  0.00  0.00     0.180 C 
ATOM      8  N           0     129.817 135.030 133.502  0.00  0.00    -0.216 N 
ATOM      9  C           0     130.464 136.218 133.257  0.00  0.00     0.670 C 
ATOM     10  N           0     129.910 137.247 132.681  0.00  0.00    -0.235 N 
ATOM     11  H           0     128.984 137.204 132.394  0.00  0.00     0.174 HD
ATOM     12  H           0     130.424 138.057 132.539  0.00  0.00     0.174 HD
ATOM     13  C           0     131.940 134.989 134.534  0.00  0.00     0.217 C 
ATOM     14  N           0     131.764 136.185 133.696  0.00  0.00    -0.191 N 
ATOM     15  N           0     133.023 134.143 134.031  0.00  0.00    -0.179 N 
ATOM     16  C           0     134.278 134.743 134.507  0.00  0.00     0.106 C 
ATOM     17  C           0     134.856 135.669 133.434  0.00  0.00     0.033 C 
ATOM     18  C           0     133.931 135.556 135.773  0.00  0.00     0.098 C 
ATOM     19  C           0     132.395 135.397 135.949  0.00  0.00     0.210 C 
ATOM     20  H           0     131.324 132.005 132.385  0.00  0.00     0.178 HD
ATOM     21  H           0     129.007 134.719 133.067  0.00  0.00     0.178 HD
ATOM     22  H           0     132.448 136.841 133.491  0.00  0.00     0.180 HD
ENDROOT
BRANCH   6  23
ATOM     23  C           0     130.983 132.052 135.472  0.00  0.00     0.208 C 
BRANCH  23  24
ATOM     24  O           0     130.179 132.521 136.586  0.00  0.00    -0.302 OA
BRANCH  24  25
ATOM     25  C           0     130.291 131.935 137.793  0.00  0.00     0.358 C 
ATOM     26  N           0     130.873 132.597 138.812  0.00  0.00    -0.346 N 
ATOM     27  H           0     131.213 133.495 138.676  0.00  0.00     0.161 HD
ATOM     28  H           0     130.954 132.173 139.682  0.00  0.00     0.161 HD
ATOM     29  O           0     129.867 130.809 137.963  0.00  0.00    -0.239 OA
ENDBRANCH  24  25
ENDBRANCH  23  24
ENDBRANCH   6  23
BRANCH  19  30
ATOM     30  O           0     131.799 136.634 136.345  0.00  0.00    -0.362 OA
ATOM     31  H           0     131.539 137.091 135.534  0.00  0.00     0.213 HD
ENDBRANCH  19  30
BRANCH  19  32
ATOM     32  O           0     132.096 134.364 136.891  0.00  0.00    -0.362 OA
ATOM     33  H           0     132.830 134.339 137.520  0.00  0.00     0.213 HD
ENDBRANCH  19  32
TORSDOF 5
ENDMDL
MODEL 5
REMARK VINA RESULT:      -6.6      1.984      3.643
REMARK  5 active torsions:
REMARK  status: ('A' for Active; 'I' for Inactive)
REMARK    1  A    between atoms: C_6  and  C_7 
REMARK    2  A    between atoms: C_7  and  O_8 
REMARK    3  A    between atoms: O_8  and  C_9 
REMARK       I    between atoms: C_9  and  N_10 
REMARK    4  A    between atoms: C_24  and  O_25 
REMARK    5  A    between atoms: C_24  and  O_26 
ROOT
ATOM      1  N           0     130.617 136.472 133.417  0.00  0.00    -0.235 N 
ATOM      2  H           0     130.737 137.434 133.462  0.00  0.00     0.174 HD
ATOM      3  H           0     129.808 136.102 133.031  0.00  0.00     0.174 HD
ATOM      4  C           0     131.547 135.678 133.867  0.00  0.00     0.672 C 
ATOM      5  N           0     132.721 136.158 134.420  0.00  0.00    -0.218 N 
ATOM      6  C           0     133.392 135.349 135.433  0.00  0.00     0.151 C 
ATOM      7  C           0     133.607 133.916 134.986  0.00  0.00     0.180 C 
ATOM      8  N           0     134.753 133.866 134.053  0.00  0.00    -0.216 N 
ATOM      9  C           0     134.435 132.980 133.052  0.00  0.00     0.670 C 
ATOM     10  N           0     135.311 132.413 132.270  0.00  0.00    -0.235 N 
ATOM     11  H           0     136.255 132.610 132.376  0.00  0.00     0.174 HD
ATOM     12  H           0     135.018 131.796 131.582  0.00  0.00     0.174 HD
ATOM     13  C           0     132.456 133.337 134.181  0.00  0.00     0.217 C 
ATOM     14  N           0     133.081 132.764 132.979  0.00  0.00    -0.191 N 
ATOM     15  N           0     131.421 134.311 133.828  0.00  0.00    -0.179 N 
ATOM     16  C           0     130.218 133.538 133.488  0.00  0.00     0.106 C 
ATOM     17  C           0     130.151 133.312 131.976  0.00  0.00     0.033 C 
ATOM     18  C           0     130.337 132.184 134.219  0.00  0.00     0.098 C 
ATOM     19  C           0     131.702 132.240 134.959  0.00  0.00     0.210 C 
ATOM     20  H           0     133.089 137.011 134.140  0.00  0.00     0.178 HD
ATOM     21  H           0     135.580 134.367 134.133  0.00  0.00     0.178 HD
ATOM     22  H           0     132.617 132.308 132.259  0.00  0.00     0.180 HD
ENDROOT
BRANCH   6  23
ATOM     23  C           0     132.543 135.347 136.706  0.00  0.00     0.208 C 
BRANCH  23  24
ATOM     24  O           0     133.233 134.608 137.748  0.00  0.00    -0.302 OA
BRANCH  24  25
ATOM     25  C           0     133.043 134.930 139.041  0.00  0.00     0.358 C 
ATOM     26  N           0     133.531 136.089 139.525  0.00  0.00    -0.346 N 
ATOM     27  H           0     134.021 136.691 138.942  0.00  0.00     0.161 HD
ATOM     28  H           0     133.395 136.321 140.457  0.00  0.00     0.161 HD
ATOM     29  O           0     132.431 134.176 139.771  0.00  0.00    -0.239 OA
ENDBRANCH  24  25
ENDBRANCH  23  24
ENDBRANCH   6  23
BRANCH  19  30
ATOM     30  O           0     132.381 130.985 134.868  0.00  0.00    -0.362 OA
ATOM     31  H           0     131.712 130.322 134.653  0.00  0.00     0.213 HD
ENDBRANCH  19  30
BRANCH  19  32
ATOM     32  O           0     131.524 132.624 136.324  0.00  0.00    -0.362 OA
ATOM     33  H           0     132.228 133.253 136.531  0.00  0.00     0.213 HD
ENDBRANCH  19  32
TORSDOF 5
ENDMDL
MODEL 6
REMARK VINA RESULT:      -6.6      2.646      4.078
REMARK  5 active torsions:
REMARK  status: ('A' for Active; 'I' for Inactive)
REMARK    1  A    between atoms: C_6  and  C_7 
REMARK    2  A    between atoms: C_7  and  O_8 
REMARK    3  A    between atoms: O_8  and  C_9 
REMARK       I    between atoms: C_9  and  N_10 
REMARK    4  A    between atoms: C_24  and  O_25 
REMARK    5  A    between atoms: C_24  and  O_26 
ROOT
ATOM      1  N           0     129.093 132.747 132.326  0.00  0.00    -0.235 N 
ATOM      2  H           0     128.500 132.017 132.564  0.00  0.00     0.174 HD
ATOM      3  H           0     128.965 133.222 131.489  0.00  0.00     0.174 HD
ATOM      4  C           0     130.055 133.096 133.133  0.00  0.00     0.672 C 
ATOM      5  N           0     130.272 132.454 134.339  0.00  0.00    -0.218 N 
ATOM      6  C           0     131.632 132.417 134.870  0.00  0.00     0.151 C 
ATOM      7  C           0     132.277 133.789 134.917  0.00  0.00     0.180 C 
ATOM      8  N           0     131.745 134.535 136.077  0.00  0.00    -0.216 N 
ATOM      9  C           0     131.559 135.838 135.683  0.00  0.00     0.670 C 
ATOM     10  N           0     131.452 136.844 136.505  0.00  0.00    -0.235 N 
ATOM     11  H           0     131.502 136.695 137.463  0.00  0.00     0.174 HD
ATOM     12  H           0     131.322 137.740 136.160  0.00  0.00     0.174 HD
ATOM     13  C           0     131.941 134.674 133.729  0.00  0.00     0.217 C 
ATOM     14  N           0     131.501 135.950 134.315  0.00  0.00    -0.191 N 
ATOM     15  N           0     130.921 134.121 132.837  0.00  0.00    -0.179 N 
ATOM     16  C           0     131.052 134.832 131.558  0.00  0.00     0.106 C 
ATOM     17  C           0     130.077 136.011 131.512  0.00  0.00     0.033 C 
ATOM     18  C           0     132.505 135.347 131.482  0.00  0.00     0.098 C 
ATOM     19  C           0     133.163 134.906 132.818  0.00  0.00     0.210 C 
ATOM     20  H           0     129.539 132.040 134.820  0.00  0.00     0.178 HD
ATOM     21  H           0     131.561 134.171 136.957  0.00  0.00     0.178 HD
ATOM     22  H           0     131.221 136.736 133.822  0.00  0.00     0.180 HD
ENDROOT
BRANCH   6  23
ATOM     23  C           0     132.482 131.502 133.986  0.00  0.00     0.208 C 
BRANCH  23  24
ATOM     24  O           0     133.820 131.400 134.540  0.00  0.00    -0.302 OA
BRANCH  24  25
ATOM     25  C           0     134.721 130.572 133.978  0.00  0.00     0.358 C 
ATOM     26  N           0     135.692 131.069 133.187  0.00  0.00    -0.346 N 
ATOM     27  H           0     135.741 132.023 133.021  0.00  0.00     0.161 HD
ATOM     28  H           0     136.340 130.471 132.782  0.00  0.00     0.161 HD
ATOM     29  O           0     134.658 129.376 134.186  0.00  0.00    -0.239 OA
ENDBRANCH  24  25
ENDBRANCH  23  24
ENDBRANCH   6  23
BRANCH  19  30
ATOM     30  O           0     134.003 135.940 133.335  0.00  0.00    -0.362 OA
ATOM     31  H           0     133.657 136.776 132.997  0.00  0.00     0.213 HD
ENDBRANCH  19  30
BRANCH  19  32
ATOM     32  O           0     133.898 133.692 132.645  0.00  0.00    -0.362 OA
ATOM     33  H           0     133.336 133.096 132.133  0.00  0.00     0.213 HD
ENDBRANCH  19  32
TORSDOF 5
ENDMDL
MODEL 7
REMARK VINA RESULT:      -6.6      9.565     13.582
REMARK  5 active torsions:
REMARK  status: ('A' for Active; 'I' for Inactive)
REMARK    1  A    between atoms: C_6  and  C_7 
REMARK    2  A    between atoms: C_7  and  O_8 
REMARK    3  A    between atoms: O_8  and  C_9 
REMARK       I    between atoms: C_9  and  N_10 
REMARK    4  A    between atoms: C_24  and  O_25 
REMARK    5  A    between atoms: C_24  and  O_26 
ROOT
ATOM      1  N           0     133.962 129.006 146.876  0.00  0.00    -0.235 N 
ATOM      2  H           0     133.489 128.531 146.175  0.00  0.00     0.174 HD
ATOM      3  H           0     133.707 128.879 147.804  0.00  0.00     0.174 HD
ATOM      4  C           0     134.943 129.808 146.574  0.00  0.00     0.672 C 
ATOM      5  N           0     135.348 130.016 145.267  0.00  0.00    -0.218 N 
ATOM      6  C           0     135.946 131.303 144.922  0.00  0.00     0.151 C 
ATOM      7  C           0     137.076 131.688 145.857  0.00  0.00     0.180 C 
ATOM      8  N           0     138.288 130.923 145.494  0.00  0.00    -0.216 N 
ATOM      9  C           0     138.909 130.550 146.662  0.00  0.00     0.670 C 
ATOM     10  N           0     140.159 130.188 146.743  0.00  0.00    -0.235 N 
ATOM     11  H           0     140.711 130.170 145.946  0.00  0.00     0.174 HD
ATOM     12  H           0     140.535 129.937 147.600  0.00  0.00     0.174 HD
ATOM     13  C           0     136.834 131.319 147.311  0.00  0.00     0.217 C 
ATOM     14  N           0     138.050 130.607 147.732  0.00  0.00    -0.191 N 
ATOM     15  N           0     135.639 130.505 147.532  0.00  0.00    -0.179 N 
ATOM     16  C           0     135.302 130.633 148.957  0.00  0.00     0.106 C 
ATOM     17  C           0     135.917 129.475 149.746  0.00  0.00     0.033 C 
ATOM     18  C           0     135.899 131.974 149.437  0.00  0.00     0.098 C 
ATOM     19  C           0     136.620 132.565 148.194  0.00  0.00     0.210 C 
ATOM     20  H           0     135.237 129.323 144.597  0.00  0.00     0.178 HD
ATOM     21  H           0     138.590 130.720 144.594  0.00  0.00     0.178 HD
ATOM     22  H           0     138.220 130.243 148.614  0.00  0.00     0.180 HD
ENDROOT
BRANCH   6  23
ATOM     23  C           0     134.864 132.383 144.985  0.00  0.00     0.208 C 
BRANCH  23  24
ATOM     24  O           0     135.475 133.690 144.823  0.00  0.00    -0.302 OA
BRANCH  24  25
ATOM     25  C           0     135.200 134.432 143.734  0.00  0.00     0.358 C 
ATOM     26  N           0     135.930 135.533 143.467  0.00  0.00    -0.346 N 
ATOM     27  H           0     136.652 135.792 144.061  0.00  0.00     0.161 HD
ATOM     28  H           0     135.732 136.067 142.681  0.00  0.00     0.161 HD
ATOM     29  O           0     134.296 134.107 142.990  0.00  0.00    -0.239 OA
ENDBRANCH  24  25
ENDBRANCH  23  24
ENDBRANCH   6  23
BRANCH  19  30
ATOM     30  O           0     137.867 133.156 148.564  0.00  0.00    -0.362 OA
ATOM     31  H           0     137.720 133.617 149.400  0.00  0.00     0.213 HD
ENDBRANCH  19  30
BRANCH  19  32
ATOM     32  O           0     135.785 133.515 147.528  0.00  0.00    -0.362 OA
ATOM     33  H           0     136.208 134.379 147.630  0.00  0.00     0.213 HD
ENDBRANCH  19  32
TORSDOF 5
ENDMDL
MODEL 8
REMARK VINA RESULT:      -6.6      4.269      6.223
REMARK  5 active torsions:
REMARK  status: ('A' for Active; 'I' for Inactive)
REMARK    1  A    between atoms: C_6  and  C_7 
REMARK    2  A    between atoms: C_7  and  O_8 
REMARK    3  A    between atoms: O_8  and  C_9 
REMARK       I    between atoms: C_9  and  N_10 
REMARK    4  A    between atoms: C_24  and  O_25 
REMARK    5  A    between atoms: C_24  and  O_26 
ROOT
ATOM      1  N           0     128.771 132.647 130.917  0.00  0.00    -0.235 N 
ATOM      2  H           0     127.870 132.363 130.693  0.00  0.00     0.174 HD
ATOM      3  H           0     129.213 133.324 130.382  0.00  0.00     0.174 HD
ATOM      4  C           0     129.384 132.122 131.940  0.00  0.00     0.672 C 
ATOM      5  N           0     128.792 131.157 132.736  0.00  0.00    -0.218 N 
ATOM      6  C           0     129.654 130.188 133.407  0.00  0.00     0.151 C 
ATOM      7  C           0     130.779 130.847 134.182  0.00  0.00     0.180 C 
ATOM      8  N           0     130.243 131.387 135.450  0.00  0.00    -0.216 N 
ATOM      9  C           0     130.845 132.602 135.671  0.00  0.00     0.670 C 
ATOM     10  N           0     130.899 133.192 136.832  0.00  0.00    -0.235 N 
ATOM     11  H           0     130.497 132.772 137.609  0.00  0.00     0.174 HD
ATOM     12  H           0     131.340 134.051 136.919  0.00  0.00     0.174 HD
ATOM     13  C           0     131.380 132.061 133.494  0.00  0.00     0.217 C 
ATOM     14  N           0     131.383 133.117 134.517  0.00  0.00    -0.191 N 
ATOM     15  N           0     130.660 132.487 132.293  0.00  0.00    -0.179 N 
ATOM     16  C           0     131.590 133.325 131.522  0.00  0.00     0.106 C 
ATOM     17  C           0     131.368 134.801 131.861  0.00  0.00     0.033 C 
ATOM     18  C           0     133.016 132.899 131.931  0.00  0.00     0.098 C 
ATOM     19  C           0     132.818 131.794 133.005  0.00  0.00     0.210 C 
ATOM     20  H           0     127.829 131.126 132.846  0.00  0.00     0.178 HD
ATOM     21  H           0     129.585 130.961 136.022  0.00  0.00     0.178 HD
ATOM     22  H           0     131.712 134.022 134.400  0.00  0.00     0.180 HD
ENDROOT
BRANCH   6  23
ATOM     23  C           0     130.260 129.255 132.356  0.00  0.00     0.208 C 
BRANCH  23  24
ATOM     24  O           0     130.135 127.878 132.801  0.00  0.00    -0.302 OA
BRANCH  24  25
ATOM     25  C           0     131.237 127.163 133.094  0.00  0.00     0.358 C 
ATOM     26  N           0     131.147 125.831 133.278  0.00  0.00    -0.346 N 
ATOM     27  H           0     130.287 125.388 133.201  0.00  0.00     0.161 HD
ATOM     28  H           0     131.941 125.315 133.489  0.00  0.00     0.161 HD
ATOM     29  O           0     132.314 127.718 133.191  0.00  0.00    -0.239 OA
ENDBRANCH  24  25
ENDBRANCH  23  24
ENDBRANCH   6  23
BRANCH  19  30
ATOM     30  O           0     133.760 131.946 134.069  0.00  0.00    -0.362 OA
ATOM     31  H           0     134.099 132.849 134.014  0.00  0.00     0.213 HD
ENDBRANCH  19  30
BRANCH  19  32
ATOM     32  O           0     132.917 130.494 132.420  0.00  0.00    -0.362 OA
ATOM     33  H           0     133.773 130.453 131.973  0.00  0.00     0.213 HD
ENDBRANCH  19  32
TORSDOF 5
ENDMDL
MODEL 9
REMARK VINA RESULT:      -6.5     10.681     13.525
REMARK  5 active torsions:
REMARK  status: ('A' for Active; 'I' for Inactive)
REMARK    1  A    between atoms: C_6  and  C_7 
REMARK    2  A    between atoms: C_7  and  O_8 
REMARK    3  A    between atoms: O_8  and  C_9 
REMARK       I    between atoms: C_9  and  N_10 
REMARK    4  A    between atoms: C_24  and  O_25 
REMARK    5  A    between atoms: C_24  and  O_26 
ROOT
ATOM      1  N           0     138.641 129.284 147.971  0.00  0.00    -0.235 N 
ATOM      2  H           0     138.654 128.320 148.079  0.00  0.00     0.174 HD
ATOM      3  H           0     139.358 129.823 148.342  0.00  0.00     0.174 HD
ATOM      4  C           0     137.667 129.855 147.321  0.00  0.00     0.672 C 
ATOM      5  N           0     136.627 129.128 146.768  0.00  0.00    -0.218 N 
ATOM      6  C           0     135.323 129.773 146.637  0.00  0.00     0.151 C 
ATOM      7  C           0     135.407 131.121 145.947  0.00  0.00     0.180 C 
ATOM      8  N           0     135.553 130.912 144.490  0.00  0.00    -0.216 N 
ATOM      9  C           0     136.451 131.841 144.025  0.00  0.00     0.670 C 
ATOM     10  N           0     136.557 132.195 142.775  0.00  0.00    -0.235 N 
ATOM     11  H           0     135.980 131.794 142.107  0.00  0.00     0.174 HD
ATOM     12  H           0     137.214 132.859 142.514  0.00  0.00     0.174 HD
ATOM     13  C           0     136.632 131.937 146.322  0.00  0.00     0.217 C 
ATOM     14  N           0     137.222 132.352 145.040  0.00  0.00    -0.191 N 
ATOM     15  N           0     137.604 131.215 147.145  0.00  0.00    -0.179 N 
ATOM     16  C           0     138.449 132.234 147.786  0.00  0.00     0.106 C 
ATOM     17  C           0     139.714 132.462 146.957  0.00  0.00     0.033 C 
ATOM     18  C           0     137.615 133.532 147.843  0.00  0.00     0.098 C 
ATOM     19  C           0     136.264 133.178 147.160  0.00  0.00     0.210 C 
ATOM     20  H           0     136.761 128.214 146.474  0.00  0.00     0.178 HD
ATOM     21  H           0     135.097 130.240 143.959  0.00  0.00     0.178 HD
ATOM     22  H           0     138.018 132.895 144.930  0.00  0.00     0.180 HD
ENDROOT
BRANCH   6  23
ATOM     23  C           0     134.727 129.970 148.033  0.00  0.00     0.208 C 
BRANCH  23  24
ATOM     24  O           0     134.315 128.686 148.569  0.00  0.00    -0.302 OA
BRANCH  24  25
ATOM     25  C           0     133.223 128.070 148.079  0.00  0.00     0.358 C 
ATOM     26  N           0     132.001 128.600 148.285  0.00  0.00    -0.346 N 
ATOM     27  H           0     131.908 129.425 148.788  0.00  0.00     0.161 HD
ATOM     28  H           0     131.214 128.156 147.931  0.00  0.00     0.161 HD
ATOM     29  O           0     133.339 127.038 147.449  0.00  0.00    -0.239 OA
ENDBRANCH  24  25
ENDBRANCH  23  24
ENDBRANCH   6  23
BRANCH  19  30
ATOM     30  O           0     135.821 134.250 146.326  0.00  0.00    -0.362 OA
ATOM     31  H           0     136.594 134.559 145.835  0.00  0.00     0.213 HD
ENDBRANCH  19  30
BRANCH  19  32
ATOM     32  O           0     135.273 132.849 148.136  0.00  0.00    -0.362 OA
ATOM     33  H           0     134.970 133.684 148.518  0.00  0.00     0.213 HD
ENDBRANCH  19  32
TORSDOF 5
ENDMDL
