MODEL 1
REMARK VINA RESULT:      -8.3      0.000      0.000
REMARK  5 active torsions:
REMARK  status: ('A' for Active; 'I' for Inactive)
REMARK    1  A    between atoms: C_6  and  C_7 
REMARK    2  A    between atoms: C_7  and  O_8 
REMARK    3  A    between atoms: O_8  and  C_9 
REMARK       I    between atoms: C_9  and  N_10 
REMARK    4  A    between atoms: C_23  and  O_24 
REMARK    5  A    between atoms: C_23  and  O_25 
ROOT
ATOM      1  N           0     137.628 134.991 142.959  0.00  0.00    -0.235 N 
ATOM      2  H           0     137.738 135.842 142.509  0.00  0.00     0.174 HD
ATOM      3  H           0     138.406 134.449 143.167  0.00  0.00     0.174 HD
ATOM      4  C           0     136.437 134.574 143.287  0.00  0.00     0.672 C 
ATOM      5  N           0     135.298 135.312 143.016  0.00  0.00    -0.218 N 
ATOM      6  C           0     134.041 134.597 142.817  0.00  0.00     0.151 C 
ATOM      7  C           0     133.744 133.617 143.936  0.00  0.00     0.180 C 
ATOM      8  N           0     133.256 134.360 145.116  0.00  0.00    -0.216 N 
ATOM      9  C           0     133.807 133.777 146.231  0.00  0.00     0.670 C 
ATOM     10  N           0     133.339 133.919 147.439  0.00  0.00    -0.235 N 
ATOM     11  H           0     132.552 134.464 147.593  0.00  0.00     0.174 HD
ATOM     12  H           0     133.777 133.478 148.183  0.00  0.00     0.174 HD
ATOM     13  C           0     134.965 132.873 144.452  0.00  0.00     0.217 C 
ATOM     14  N           0     134.912 133.027 145.915  0.00  0.00    -0.191 N 
ATOM     15  N           0     136.232 133.375 143.918  0.00  0.00    -0.183 N 
ATOM     16  C           0     137.209 132.297 144.153  0.00  0.00     0.150 C 
ATOM     17  C           0     136.416 130.995 143.880  0.00  0.00     0.093 C 
ATOM     18  C           0     134.928 131.380 144.082  0.00  0.00     0.209 C 
ATOM     19  H           0     135.334 136.280 142.960  0.00  0.00     0.178 HD
ATOM     20  H           0     132.654 135.122 145.106  0.00  0.00     0.178 HD
ATOM     21  H           0     135.548 132.658 146.548  0.00  0.00     0.180 HD
ENDROOT
BRANCH   6  22
ATOM     22  C           0     134.114 133.829 141.496  0.00  0.00     0.208 C 
BRANCH  22  23
ATOM     23  O           0     132.976 134.181 140.668  0.00  0.00    -0.302 OA
BRANCH  23  24
ATOM     24  C           0     133.155 134.912 139.551  0.00  0.00     0.358 C 
ATOM     25  N           0     133.528 136.204 139.644  0.00  0.00    -0.346 N 
ATOM     26  H           0     133.668 136.607 140.515  0.00  0.00     0.161 HD
ATOM     27  H           0     133.657 136.731 138.839  0.00  0.00     0.161 HD
ATOM     28  O           0     132.981 134.407 138.460  0.00  0.00    -0.239 OA
ENDBRANCH  23  24
ENDBRANCH  22  23
ENDBRANCH   6  22
BRANCH  18  29
ATOM     29  O           0     134.355 130.613 145.141  0.00  0.00    -0.362 OA
ATOM     30  H           0     133.395 130.674 145.042  0.00  0.00     0.213 HD
ENDBRANCH  18  29
BRANCH  18  31
ATOM     31  O           0     134.195 131.187 142.870  0.00  0.00    -0.362 OA
ATOM     32  H           0     134.222 132.027 142.391  0.00  0.00     0.213 HD
ENDBRANCH  18  31
TORSDOF 5
ENDMDL
MODEL 2
REMARK VINA RESULT:      -8.2      1.566      1.936
REMARK  5 active torsions:
REMARK  status: ('A' for Active; 'I' for Inactive)
REMARK    1  A    between atoms: C_6  and  C_7 
REMARK    2  A    between atoms: C_7  and  O_8 
REMARK    3  A    between atoms: O_8  and  C_9 
REMARK       I    between atoms: C_9  and  N_10 
REMARK    4  A    between atoms: C_23  and  O_24 
REMARK    5  A    between atoms: C_23  and  O_25 
ROOT
ATOM      1  N           0     135.356 136.855 143.199  0.00  0.00    -0.235 N 
ATOM      2  H           0     134.627 137.462 142.999  0.00  0.00     0.174 HD
ATOM      3  H           0     136.263 137.193 143.271  0.00  0.00     0.174 HD
ATOM      4  C           0     135.118 135.586 143.376  0.00  0.00     0.672 C 
ATOM      5  N           0     133.842 135.056 143.288  0.00  0.00    -0.218 N 
ATOM      6  C           0     133.699 133.663 142.875  0.00  0.00     0.151 C 
ATOM      7  C           0     134.573 132.722 143.680  0.00  0.00     0.180 C 
ATOM      8  N           0     133.959 132.501 145.006  0.00  0.00    -0.216 N 
ATOM      9  C           0     134.971 132.478 145.933  0.00  0.00     0.670 C 
ATOM     10  N           0     134.863 131.959 147.124  0.00  0.00    -0.235 N 
ATOM     11  H           0     134.025 131.555 147.402  0.00  0.00     0.174 HD
ATOM     12  H           0     135.619 131.976 147.731  0.00  0.00     0.174 HD
ATOM     13  C           0     135.951 133.277 144.003  0.00  0.00     0.217 C 
ATOM     14  N           0     136.112 133.070 145.452  0.00  0.00    -0.191 N 
ATOM     15  N           0     136.116 134.688 143.654  0.00  0.00    -0.183 N 
ATOM     16  C           0     137.572 134.912 143.611  0.00  0.00     0.150 C 
ATOM     17  C           0     138.140 133.618 142.978  0.00  0.00     0.093 C 
ATOM     18  C           0     137.063 132.535 143.242  0.00  0.00     0.209 C 
ATOM     19  H           0     133.065 135.596 143.497  0.00  0.00     0.178 HD
ATOM     20  H           0     133.012 132.392 145.188  0.00  0.00     0.178 HD
ATOM     21  H           0     136.893 133.309 145.976  0.00  0.00     0.180 HD
ENDROOT
BRANCH   6  22
ATOM     22  C           0     134.077 133.545 141.397  0.00  0.00     0.208 C 
BRANCH  22  23
ATOM     23  O           0     132.978 134.018 140.576  0.00  0.00    -0.302 OA
BRANCH  23  24
ATOM     24  C           0     133.213 134.874 139.563  0.00  0.00     0.358 C 
ATOM     25  N           0     133.554 136.151 139.825  0.00  0.00    -0.346 N 
ATOM     26  H           0     133.630 136.455 140.744  0.00  0.00     0.161 HD
ATOM     27  H           0     133.722 136.768 139.096  0.00  0.00     0.161 HD
ATOM     28  O           0     133.117 134.494 138.413  0.00  0.00    -0.239 OA
ENDBRANCH  23  24
ENDBRANCH  22  23
ENDBRANCH   6  22
BRANCH  18  29
ATOM     29  O           0     137.603 131.481 144.042  0.00  0.00    -0.362 OA
ATOM     30  H           0     138.207 131.893 144.675  0.00  0.00     0.213 HD
ENDBRANCH  18  29
BRANCH  18  31
ATOM     31  O           0     136.562 132.019 142.008  0.00  0.00    -0.362 OA
ATOM     32  H           0     135.948 132.680 141.658  0.00  0.00     0.213 HD
ENDBRANCH  18  31
TORSDOF 5
ENDMDL
MODEL 3
REMARK VINA RESULT:      -7.4      2.214      3.916
REMARK  5 active torsions:
REMARK  status: ('A' for Active; 'I' for Inactive)
REMARK    1  A    between atoms: C_6  and  C_7 
REMARK    2  A    between atoms: C_7  and  O_8 
REMARK    3  A    between atoms: O_8  and  C_9 
REMARK       I    between atoms: C_9  and  N_10 
REMARK    4  A    between atoms: C_23  and  O_24 
REMARK    5  A    between atoms: C_23  and  O_25 
ROOT
ATOM      1  N           0     134.783 130.448 145.419  0.00  0.00    -0.235 N 
ATOM      2  H           0     134.846 129.508 145.190  0.00  0.00     0.174 HD
ATOM      3  H           0     134.573 130.712 146.329  0.00  0.00     0.174 HD
ATOM      4  C           0     134.984 131.357 144.507  0.00  0.00     0.672 C 
ATOM      5  N           0     135.291 131.031 143.197  0.00  0.00    -0.218 N 
ATOM      6  C           0     134.899 131.962 142.143  0.00  0.00     0.151 C 
ATOM      7  C           0     135.352 133.382 142.420  0.00  0.00     0.180 C 
ATOM      8  N           0     136.797 133.498 142.130  0.00  0.00    -0.216 N 
ATOM      9  C           0     137.352 134.296 143.101  0.00  0.00     0.670 C 
ATOM     10  N           0     138.497 134.906 142.980  0.00  0.00    -0.235 N 
ATOM     11  H           0     139.014 134.811 142.165  0.00  0.00     0.174 HD
ATOM     12  H           0     138.832 135.456 143.706  0.00  0.00     0.174 HD
ATOM     13  C           0     135.237 133.798 143.878  0.00  0.00     0.217 C 
ATOM     14  N           0     136.552 134.371 144.213  0.00  0.00    -0.191 N 
ATOM     15  N           0     134.901 132.697 144.781  0.00  0.00    -0.183 N 
ATOM     16  C           0     134.402 133.340 146.011  0.00  0.00     0.150 C 
ATOM     17  C           0     133.580 134.549 145.505  0.00  0.00     0.093 C 
ATOM     18  C           0     134.138 134.852 144.091  0.00  0.00     0.209 C 
ATOM     19  H           0     135.755 130.206 142.985  0.00  0.00     0.178 HD
ATOM     20  H           0     137.268 133.085 141.389  0.00  0.00     0.178 HD
ATOM     21  H           0     136.807 134.741 145.072  0.00  0.00     0.180 HD
ENDROOT
BRANCH   6  22
ATOM     22  C           0     133.375 131.947 142.012  0.00  0.00     0.208 C 
BRANCH  22  23
ATOM     23  O           0     132.968 132.883 140.980  0.00  0.00    -0.302 OA
BRANCH  23  24
ATOM     24  C           0     131.669 132.986 140.638  0.00  0.00     0.358 C 
ATOM     25  N           0     131.322 133.120 139.343  0.00  0.00    -0.346 N 
ATOM     26  H           0     132.008 133.142 138.656  0.00  0.00     0.161 HD
ATOM     27  H           0     130.387 133.194 139.097  0.00  0.00     0.161 HD
ATOM     28  O           0     130.811 132.958 141.498  0.00  0.00    -0.239 OA
ENDBRANCH  23  24
ENDBRANCH  22  23
ENDBRANCH   6  22
BRANCH  18  29
ATOM     29  O           0     134.688 136.170 144.045  0.00  0.00    -0.362 OA
ATOM     30  H           0     134.047 136.725 143.579  0.00  0.00     0.213 HD
ENDBRANCH  18  29
BRANCH  18  31
ATOM     31  O           0     133.111 134.705 143.108  0.00  0.00    -0.362 OA
ATOM     32  H           0     132.584 133.937 143.368  0.00  0.00     0.213 HD
ENDBRANCH  18  31
TORSDOF 5
ENDMDL
MODEL 4
REMARK VINA RESULT:      -7.3      1.182      1.246
REMARK  5 active torsions:
REMARK  status: ('A' for Active; 'I' for Inactive)
REMARK    1  A    between atoms: C_6  and  C_7 
REMARK    2  A    between atoms: C_7  and  O_8 
REMARK    3  A    between atoms: O_8  and  C_9 
REMARK       I    between atoms: C_9  and  N_10 
REMARK    4  A    between atoms: C_23  and  O_24 
REMARK    5  A    between atoms: C_23  and  O_25 
ROOT
ATOM      1  N           0     138.276 134.940 143.256  0.00  0.00    -0.235 N 
ATOM      2  H           0     138.504 135.553 142.541  0.00  0.00     0.174 HD
ATOM      3  H           0     138.979 134.494 143.755  0.00  0.00     0.174 HD
ATOM      4  C           0     137.026 134.716 143.550  0.00  0.00     0.672 C 
ATOM      5  N           0     135.988 135.330 142.871  0.00  0.00    -0.218 N 
ATOM      6  C           0     134.709 134.631 142.783  0.00  0.00     0.151 C 
ATOM      7  C           0     134.208 134.159 144.134  0.00  0.00     0.180 C 
ATOM      8  N           0     133.648 135.310 144.874  0.00  0.00    -0.216 N 
ATOM      9  C           0     134.019 135.177 146.190  0.00  0.00     0.670 C 
ATOM     10  N           0     133.428 135.781 147.182  0.00  0.00    -0.235 N 
ATOM     11  H           0     132.675 136.368 147.013  0.00  0.00     0.174 HD
ATOM     12  H           0     133.742 135.642 148.090  0.00  0.00     0.174 HD
ATOM     13  C           0     135.298 133.630 145.051  0.00  0.00     0.217 C 
ATOM     14  N           0     135.090 134.330 146.330  0.00  0.00    -0.191 N 
ATOM     15  N           0     136.654 133.853 144.548  0.00  0.00    -0.183 N 
ATOM     16  C           0     137.508 132.915 145.298  0.00  0.00     0.150 C 
ATOM     17  C           0     136.651 131.633 145.424  0.00  0.00     0.093 C 
ATOM     18  C           0     135.185 132.111 145.263  0.00  0.00     0.209 C 
ATOM     19  H           0     136.107 136.202 142.464  0.00  0.00     0.178 HD
ATOM     20  H           0     133.115 136.029 144.499  0.00  0.00     0.178 HD
ATOM     21  H           0     135.617 134.210 147.135  0.00  0.00     0.180 HD
ENDROOT
BRANCH   6  22
ATOM     22  C           0     134.872 133.418 141.866  0.00  0.00     0.208 C 
BRANCH  22  23
ATOM     23  O           0     134.570 133.800 140.499  0.00  0.00    -0.302 OA
BRANCH  23  24
ATOM     24  C           0     133.429 134.458 140.219  0.00  0.00     0.358 C 
ATOM     25  N           0     133.454 135.789 140.007  0.00  0.00    -0.346 N 
ATOM     26  H           0     134.294 136.273 140.057  0.00  0.00     0.161 HD
ATOM     27  H           0     132.632 136.264 139.806  0.00  0.00     0.161 HD
ATOM     28  O           0     132.378 133.852 140.157  0.00  0.00    -0.239 OA
ENDBRANCH  23  24
ENDBRANCH  22  23
ENDBRANCH   6  22
BRANCH  18  29
ATOM     29  O           0     134.434 131.821 146.443  0.00  0.00    -0.362 OA
ATOM     30  H           0     134.379 130.857 146.509  0.00  0.00     0.213 HD
ENDBRANCH  18  29
BRANCH  18  31
ATOM     31  O           0     134.583 131.494 144.123  0.00  0.00    -0.362 OA
ATOM     32  H           0     134.836 130.561 144.143  0.00  0.00     0.213 HD
ENDBRANCH  18  31
TORSDOF 5
ENDMDL
MODEL 5
REMARK VINA RESULT:      -7.2      2.154      2.950
REMARK  5 active torsions:
REMARK  status: ('A' for Active; 'I' for Inactive)
REMARK    1  A    between atoms: C_6  and  C_7 
REMARK    2  A    between atoms: C_7  and  O_8 
REMARK    3  A    between atoms: O_8  and  C_9 
REMARK       I    between atoms: C_9  and  N_10 
REMARK    4  A    between atoms: C_23  and  O_24 
REMARK    5  A    between atoms: C_23  and  O_25 
ROOT
ATOM      1  N           0     137.725 134.967 143.608  0.00  0.00    -0.235 N 
ATOM      2  H           0     138.131 135.661 144.148  0.00  0.00     0.174 HD
ATOM      3  H           0     138.072 134.777 142.721  0.00  0.00     0.174 HD
ATOM      4  C           0     136.716 134.285 144.072  0.00  0.00     0.672 C 
ATOM      5  N           0     136.188 134.514 145.331  0.00  0.00    -0.218 N 
ATOM      6  C           0     134.775 134.220 145.553  0.00  0.00     0.151 C 
ATOM      7  C           0     134.391 132.825 145.099  0.00  0.00     0.180 C 
ATOM      8  N           0     134.861 131.843 146.099  0.00  0.00    -0.216 N 
ATOM      9  C           0     135.333 130.749 145.415  0.00  0.00     0.670 C 
ATOM     10  N           0     135.487 129.566 145.941  0.00  0.00    -0.235 N 
ATOM     11  H           0     135.262 129.418 146.873  0.00  0.00     0.174 HD
ATOM     12  H           0     135.825 128.836 145.401  0.00  0.00     0.174 HD
ATOM     13  C           0     135.063 132.383 143.809  0.00  0.00     0.217 C 
ATOM     14  N           0     135.622 131.055 144.109  0.00  0.00    -0.191 N 
ATOM     15  N           0     136.105 133.298 143.343  0.00  0.00    -0.183 N 
ATOM     16  C           0     136.306 132.967 141.920  0.00  0.00     0.150 C 
ATOM     17  C           0     134.883 132.667 141.391  0.00  0.00     0.093 C 
ATOM     18  C           0     134.061 132.278 142.646  0.00  0.00     0.209 C 
ATOM     19  H           0     136.743 134.860 146.046  0.00  0.00     0.178 HD
ATOM     20  H           0     134.839 131.950 147.063  0.00  0.00     0.178 HD
ATOM     21  H           0     136.110 130.491 143.489  0.00  0.00     0.180 HD
ENDROOT
BRANCH   6  22
ATOM     22  C           0     133.932 135.238 144.782  0.00  0.00     0.208 C 
BRANCH  22  23
ATOM     23  O           0     134.799 136.058 143.955  0.00  0.00    -0.302 OA
BRANCH  23  24
ATOM     24  C           0     134.325 136.606 142.820  0.00  0.00     0.358 C 
ATOM     25  N           0     134.496 137.922 142.585  0.00  0.00    -0.346 N 
ATOM     26  H           0     134.960 138.475 143.234  0.00  0.00     0.161 HD
ATOM     27  H           0     134.154 138.318 141.768  0.00  0.00     0.161 HD
ATOM     28  O           0     133.743 135.914 142.008  0.00  0.00    -0.239 OA
ENDBRANCH  23  24
ENDBRANCH  22  23
ENDBRANCH   6  22
BRANCH  18  29
ATOM     29  O           0     133.570 130.941 142.525  0.00  0.00    -0.362 OA
ATOM     30  H           0     133.521 130.747 141.578  0.00  0.00     0.213 HD
ENDBRANCH  18  29
BRANCH  18  31
ATOM     31  O           0     132.979 133.192 142.838  0.00  0.00    -0.362 OA
ATOM     32  H           0     132.401 133.106 142.067  0.00  0.00     0.213 HD
ENDBRANCH  18  31
TORSDOF 5
ENDMDL
MODEL 6
REMARK VINA RESULT:      -7.1      2.719      5.242
REMARK  5 active torsions:
REMARK  status: ('A' for Active; 'I' for Inactive)
REMARK    1  A    between atoms: C_6  and  C_7 
REMARK    2  A    between atoms: C_7  and  O_8 
REMARK    3  A    between atoms: O_8  and  C_9 
REMARK       I    between atoms: C_9  and  N_10 
REMARK    4  A    between atoms: C_23  and  O_24 
REMARK    5  A    between atoms: C_23  and  O_25 
ROOT
ATOM      1  N           0     137.660 134.498 142.503  0.00  0.00    -0.235 N 
ATOM      2  H           0     138.468 134.157 142.091  0.00  0.00     0.174 HD
ATOM      3  H           0     137.584 135.443 142.715  0.00  0.00     0.174 HD
ATOM      4  C           0     136.672 133.690 142.770  0.00  0.00     0.672 C 
ATOM      5  N           0     136.730 132.337 142.484  0.00  0.00    -0.218 N 
ATOM      6  C           0     135.953 131.421 143.313  0.00  0.00     0.151 C 
ATOM      7  C           0     134.501 131.840 143.444  0.00  0.00     0.180 C 
ATOM      8  N           0     133.781 131.492 142.201  0.00  0.00    -0.216 N 
ATOM      9  C           0     132.913 132.520 141.923  0.00  0.00     0.670 C 
ATOM     10  N           0     131.880 132.414 141.136  0.00  0.00    -0.235 N 
ATOM     11  H           0     131.685 131.567 140.703  0.00  0.00     0.174 HD
ATOM     12  H           0     131.306 133.181 140.983  0.00  0.00     0.174 HD
ATOM     13  C           0     134.297 133.340 143.577  0.00  0.00     0.217 C 
ATOM     14  N           0     133.268 133.673 142.578  0.00  0.00    -0.191 N 
ATOM     15  N           0     135.513 134.124 143.358  0.00  0.00    -0.183 N 
ATOM     16  C           0     135.239 135.444 143.953  0.00  0.00     0.150 C 
ATOM     17  C           0     134.432 135.126 145.236  0.00  0.00     0.093 C 
ATOM     18  C           0     133.806 133.731 144.982  0.00  0.00     0.209 C 
ATOM     19  H           0     137.272 132.007 141.751  0.00  0.00     0.178 HD
ATOM     20  H           0     133.899 130.685 141.676  0.00  0.00     0.178 HD
ATOM     21  H           0     132.902 134.555 142.412  0.00  0.00     0.180 HD
ENDROOT
BRANCH   6  22
ATOM     22  C           0     136.578 131.367 144.708  0.00  0.00     0.208 C 
BRANCH  22  23
ATOM     23  O           0     135.808 130.471 145.551  0.00  0.00    -0.302 OA
BRANCH  23  24
ATOM     24  C           0     136.240 130.174 146.791  0.00  0.00     0.358 C 
ATOM     25  N           0     136.820 128.983 147.036  0.00  0.00    -0.346 N 
ATOM     26  H           0     136.926 128.338 146.319  0.00  0.00     0.161 HD
ATOM     27  H           0     137.131 128.769 147.930  0.00  0.00     0.161 HD
ATOM     28  O           0     136.107 130.982 147.690  0.00  0.00    -0.239 OA
ENDBRANCH  23  24
ENDBRANCH  22  23
ENDBRANCH   6  22
BRANCH  18  29
ATOM     29  O           0     132.380 133.812 145.013  0.00  0.00    -0.362 OA
ATOM     30  H           0     132.089 133.321 145.793  0.00  0.00     0.213 HD
ENDBRANCH  18  29
BRANCH  18  31
ATOM     31  O           0     134.275 132.791 145.951  0.00  0.00    -0.362 OA
ATOM     32  H           0     134.474 131.974 145.474  0.00  0.00     0.213 HD
ENDBRANCH  18  31
TORSDOF 5
ENDMDL
MODEL 7
REMARK VINA RESULT:      -7.0      2.508      3.686
REMARK  5 active torsions:
REMARK  status: ('A' for Active; 'I' for Inactive)
REMARK    1  A    between atoms: C_6  and  C_7 
REMARK    2  A    between atoms: C_7  and  O_8 
REMARK    3  A    between atoms: O_8  and  C_9 
REMARK       I    between atoms: C_9  and  N_10 
REMARK    4  A    between atoms: C_23  and  O_24 
REMARK    5  A    between atoms: C_23  and  O_25 
ROOT
ATOM      1  N           0     134.598 134.805 147.138  0.00  0.00    -0.235 N 
ATOM      2  H           0     133.768 135.303 147.084  0.00  0.00     0.174 HD
ATOM      3  H           0     135.275 135.061 147.784  0.00  0.00     0.174 HD
ATOM      4  C           0     134.803 133.791 146.345  0.00  0.00     0.672 C 
ATOM      5  N           0     133.867 133.385 145.411  0.00  0.00    -0.218 N 
ATOM      6  C           0     134.341 132.722 144.199  0.00  0.00     0.151 C 
ATOM      7  C           0     135.281 131.569 144.494  0.00  0.00     0.180 C 
ATOM      8  N           0     134.493 130.404 144.949  0.00  0.00    -0.216 N 
ATOM      9  C           0     135.195 129.801 145.964  0.00  0.00     0.670 C 
ATOM     10  N           0     135.004 128.573 146.358  0.00  0.00    -0.235 N 
ATOM     11  H           0     134.331 128.024 145.925  0.00  0.00     0.174 HD
ATOM     12  H           0     135.535 128.208 147.082  0.00  0.00     0.174 HD
ATOM     13  C           0     136.244 131.830 145.641  0.00  0.00     0.217 C 
ATOM     14  N           0     136.122 130.651 146.514  0.00  0.00    -0.191 N 
ATOM     15  N           0     135.962 133.060 146.380  0.00  0.00    -0.183 N 
ATOM     16  C           0     137.204 133.368 147.113  0.00  0.00     0.150 C 
ATOM     17  C           0     138.335 132.992 146.126  0.00  0.00     0.093 C 
ATOM     18  C           0     137.696 131.970 145.152  0.00  0.00     0.209 C 
ATOM     19  H           0     132.920 133.536 145.557  0.00  0.00     0.178 HD
ATOM     20  H           0     133.637 130.117 144.596  0.00  0.00     0.178 HD
ATOM     21  H           0     136.614 130.499 147.335  0.00  0.00     0.180 HD
ENDROOT
BRANCH   6  22
ATOM     22  C           0     135.074 133.746 143.331  0.00  0.00     0.208 C 
BRANCH  22  23
ATOM     23  O           0     134.118 134.689 142.782  0.00  0.00    -0.302 OA
BRANCH  23  24
ATOM     24  C           0     134.078 135.954 143.243  0.00  0.00     0.358 C 
ATOM     25  N           0     134.475 136.972 142.454  0.00  0.00    -0.346 N 
ATOM     26  H           0     134.790 136.794 141.554  0.00  0.00     0.161 HD
ATOM     27  H           0     134.447 137.883 142.786  0.00  0.00     0.161 HD
ATOM     28  O           0     133.683 136.177 144.370  0.00  0.00    -0.239 OA
ENDBRANCH  23  24
ENDBRANCH  22  23
ENDBRANCH   6  22
BRANCH  18  29
ATOM     29  O           0     138.376 130.716 145.230  0.00  0.00    -0.362 OA
ATOM     30  H           0     139.290 130.876 144.957  0.00  0.00     0.213 HD
ENDBRANCH  18  29
BRANCH  18  31
ATOM     31  O           0     137.723 132.472 143.814  0.00  0.00    -0.362 OA
ATOM     32  H           0     137.811 133.433 143.878  0.00  0.00     0.213 HD
ENDBRANCH  18  31
TORSDOF 5
ENDMDL
MODEL 8
REMARK VINA RESULT:      -6.9      2.885      5.176
REMARK  5 active torsions:
REMARK  status: ('A' for Active; 'I' for Inactive)
REMARK    1  A    between atoms: C_6  and  C_7 
REMARK    2  A    between atoms: C_7  and  O_8 
REMARK    3  A    between atoms: O_8  and  C_9 
REMARK       I    between atoms: C_9  and  N_10 
REMARK    4  A    between atoms: C_23  and  O_24 
REMARK    5  A    between atoms: C_23  and  O_25 
ROOT
ATOM      1  N           0     134.795 130.952 145.435  0.00  0.00    -0.235 N 
ATOM      2  H           0     133.969 130.685 145.866  0.00  0.00     0.174 HD
ATOM      3  H           0     135.598 130.420 145.554  0.00  0.00     0.174 HD
ATOM      4  C           0     134.827 132.023 144.692  0.00  0.00     0.672 C 
ATOM      5  N           0     133.708 132.811 144.488  0.00  0.00    -0.218 N 
ATOM      6  C           0     133.903 134.232 144.217  0.00  0.00     0.151 C 
ATOM      7  C           0     134.897 134.482 143.099  0.00  0.00     0.180 C 
ATOM      8  N           0     134.245 134.216 141.800  0.00  0.00    -0.216 N 
ATOM      9  C           0     135.164 133.587 140.996  0.00  0.00     0.670 C 
ATOM     10  N           0     135.080 133.524 139.697  0.00  0.00    -0.235 N 
ATOM     11  H           0     134.332 133.939 139.239  0.00  0.00     0.174 HD
ATOM     12  H           0     135.765 133.063 139.188  0.00  0.00     0.174 HD
ATOM     13  C           0     136.092 133.542 143.108  0.00  0.00     0.217 C 
ATOM     14  N           0     136.182 133.031 141.730  0.00  0.00    -0.191 N 
ATOM     15  N           0     135.971 132.444 144.067  0.00  0.00    -0.183 N 
ATOM     16  C           0     137.343 131.937 144.253  0.00  0.00     0.150 C 
ATOM     17  C           0     138.226 133.208 144.244  0.00  0.00     0.093 C 
ATOM     18  C           0     137.394 134.271 143.482  0.00  0.00     0.209 C 
ATOM     19  H           0     132.817 132.429 144.524  0.00  0.00     0.178 HD
ATOM     20  H           0     133.334 134.445 141.557  0.00  0.00     0.178 HD
ATOM     21  H           0     136.849 132.411 141.397  0.00  0.00     0.180 HD
ENDROOT
BRANCH   6  22
ATOM     22  C           0     134.410 134.913 145.489  0.00  0.00     0.208 C 
BRANCH  22  23
ATOM     23  O           0     133.290 135.484 146.213  0.00  0.00    -0.302 OA
BRANCH  23  24
ATOM     24  C           0     133.315 135.541 147.559  0.00  0.00     0.358 C 
ATOM     25  N           0     132.189 135.825 148.242  0.00  0.00    -0.346 N 
ATOM     26  H           0     131.360 135.988 147.766  0.00  0.00     0.161 HD
ATOM     27  H           0     132.208 135.867 149.211  0.00  0.00     0.161 HD
ATOM     28  O           0     134.354 135.336 148.155  0.00  0.00    -0.239 OA
ENDBRANCH  23  24
ENDBRANCH  22  23
ENDBRANCH   6  22
BRANCH  18  29
ATOM     29  O           0     138.087 134.697 142.308  0.00  0.00    -0.362 OA
ATOM     30  H           0     137.516 135.338 141.863  0.00  0.00     0.213 HD
ENDBRANCH  18  29
BRANCH  18  31
ATOM     31  O           0     137.113 135.386 144.329  0.00  0.00    -0.362 OA
ATOM     32  H           0     136.448 135.922 143.875  0.00  0.00     0.213 HD
ENDBRANCH  18  31
TORSDOF 5
ENDMDL
MODEL 9
REMARK VINA RESULT:      -6.8      5.366     10.093
REMARK  5 active torsions:
REMARK  status: ('A' for Active; 'I' for Inactive)
REMARK    1  A    between atoms: C_6  and  C_7 
REMARK    2  A    between atoms: C_7  and  O_8 
REMARK    3  A    between atoms: O_8  and  C_9 
REMARK       I    between atoms: C_9  and  N_10 
REMARK    4  A    between atoms: C_23  and  O_24 
REMARK    5  A    between atoms: C_23  and  O_25 
ROOT
ATOM      1  N           0     131.393 132.201 134.973  0.00  0.00    -0.235 N 
ATOM      2  H           0     130.803 131.860 135.663  0.00  0.00     0.174 HD
ATOM      3  H           0     131.768 131.596 134.313  0.00  0.00     0.174 HD
ATOM      4  C           0     131.681 133.471 134.930  0.00  0.00     0.672 C 
ATOM      5  N           0     131.168 134.375 135.845  0.00  0.00    -0.218 N 
ATOM      6  C           0     131.950 135.569 136.150  0.00  0.00     0.151 C 
ATOM      7  C           0     132.384 136.317 134.904  0.00  0.00     0.180 C 
ATOM      8  N           0     131.236 137.077 134.368  0.00  0.00    -0.216 N 
ATOM      9  C           0     131.279 136.983 132.999  0.00  0.00     0.670 C 
ATOM     10  N           0     130.665 137.798 132.188  0.00  0.00    -0.235 N 
ATOM     11  H           0     130.136 138.529 132.545  0.00  0.00     0.174 HD
ATOM     12  H           0     130.738 137.675 131.229  0.00  0.00     0.174 HD
ATOM     13  C           0     132.797 135.416 133.751  0.00  0.00     0.217 C 
ATOM     14  N           0     132.049 135.923 132.589  0.00  0.00    -0.191 N 
ATOM     15  N           0     132.514 133.999 133.979  0.00  0.00    -0.183 N 
ATOM     16  C           0     133.358 133.273 133.012  0.00  0.00     0.150 C 
ATOM     17  C           0     134.684 134.071 132.985  0.00  0.00     0.093 C 
ATOM     18  C           0     134.308 135.493 133.474  0.00  0.00     0.209 C 
ATOM     19  H           0     130.311 134.218 136.271  0.00  0.00     0.178 HD
ATOM     20  H           0     130.572 137.557 134.889  0.00  0.00     0.178 HD
ATOM     21  H           0     132.095 135.570 131.686  0.00  0.00     0.180 HD
ENDROOT
BRANCH   6  22
ATOM     22  C           0     133.195 135.156 136.937  0.00  0.00     0.208 C 
BRANCH  22  23
ATOM     23  O           0     132.800 134.370 138.091  0.00  0.00    -0.302 OA
BRANCH  23  24
ATOM     24  C           0     133.039 134.831 139.334  0.00  0.00     0.358 C 
ATOM     25  N           0     133.523 136.076 139.510  0.00  0.00    -0.346 N 
ATOM     26  H           0     133.699 136.641 138.741  0.00  0.00     0.161 HD
ATOM     27  H           0     133.695 136.408 140.405  0.00  0.00     0.161 HD
ATOM     28  O           0     132.817 134.123 140.297  0.00  0.00    -0.239 OA
ENDBRANCH  23  24
ENDBRANCH  22  23
ENDBRANCH   6  22
BRANCH  18  29
ATOM     29  O           0     134.586 136.458 132.458  0.00  0.00    -0.362 OA
ATOM     30  H           0     133.805 137.024 132.390  0.00  0.00     0.213 HD
ENDBRANCH  18  29
BRANCH  18  31
ATOM     31  O           0     135.018 135.811 134.674  0.00  0.00    -0.362 OA
ATOM     32  H           0     134.356 136.076 135.327  0.00  0.00     0.213 HD
ENDBRANCH  18  31
TORSDOF 5
ENDMDL
