# created with PyMOL 2.3.4
@<TRIPOS>MOLECULE
ligand_out_0001
32 34 1                 
SMALL
USER_CHARGES
@<TRIPOS>ATOM
1	   N	137.628	134.991	142.959	N.3	1	UNK0	-0.235	
2	   N	135.298	135.312	143.016	N.3	1	UNK0	-0.218	
3	   N	133.256	134.360	145.116	N.3	1	UNK0	-0.216	
4	   N	133.339	133.919	147.439	N.3	1	UNK0	-0.235	
5	   N	134.912	133.027	145.915	N.3	1	UNK0	-0.191	
6	   N	136.232	133.375	143.918	N.3	1	UNK0	-0.183	
7	   N	133.528	136.204	139.644	N.pl3	1	UNK0	-0.346	
8	   C	136.437	134.574	143.287	C.3	1	UNK0	0.672	
9	   C	134.041	134.597	142.817	C.3	1	UNK0	0.151	
10	   C	133.744	133.617	143.936	C.3	1	UNK0	0.180	
11	   C	133.807	133.777	146.231	C.3	1	UNK0	0.670	
12	   C	134.965	132.873	144.452	C.3	1	UNK0	0.217	
13	   C	137.209	132.297	144.153	C.3	1	UNK0	0.150	
14	   C	136.416	130.995	143.880	C.3	1	UNK0	0.093	
15	   C	134.928	131.380	144.082	C.3	1	UNK0	0.209	
16	   C	134.114	133.829	141.496	C.2	1	UNK0	0.208	
17	   C	133.155	134.912	139.551	C.2	1	UNK0	0.358	
18	   O	132.976	134.181	140.668	O.2	1	UNK0	-0.302	
19	   O	132.981	134.407	138.460	O.co2	1	UNK0	-0.239	
20	   O	134.355	130.613	145.141	O.2	1	UNK0	-0.362	
21	   O	134.195	131.187	142.870	O.2	1	UNK0	-0.362	
22	   H	137.738	135.842	142.509	 H	1	UNK0	0.174	
23	   H	138.406	134.449	143.167	 H	1	UNK0	0.174	
24	   H	132.552	134.464	147.593	 H	1	UNK0	0.174	
25	   H	133.777	133.478	148.183	 H	1	UNK0	0.174	
26	   H	135.334	136.280	142.960	 H	1	UNK0	0.178	
27	   H	132.654	135.122	145.106	 H	1	UNK0	0.178	
28	   H	135.548	132.658	146.548	 H	1	UNK0	0.180	
29	   H	133.668	136.607	140.515	 H	1	UNK0	0.161	
30	   H	133.657	136.731	138.839	 H	1	UNK0	0.161	
31	   H	133.395	130.674	145.042	 H	1	UNK0	0.213	
32	   H	134.222	132.027	142.391	 H	1	UNK0	0.213	
@<TRIPOS>BOND
1 1 8 1
2 1 22 1
3 1 23 1
4 2 9 1
5 2 26 1
6 3 11 1
7 3 27 1
8 4 24 1
9 4 25 1
10 5 28 1
11 6 13 1
12 7 29 1
13 7 30 1
14 2 8 1
15 6 8 1
16 9 10 1
17 9 16 1
18 3 10 1
19 10 12 1
20 4 11 1
21 5 11 1
22 5 12 1
23 6 12 1
24 12 15 1
25 13 14 1
26 14 15 1
27 15 20 2
28 15 21 2
29 16 18 2
30 7 17 1
31 17 19 2
32 17 18 2
33 20 31 1
34 21 32 1
@<TRIPOS>SUBSTRUCTURE
1	UNK0	1	GROUP	1 ****	UNK
