# created with PyMOL 2.3.4
@<TRIPOS>MOLECULE
ligand_out_0001
32 34 1                 
SMALL
USER_CHARGES
@<TRIPOS>ATOM
1	   N	133.426	135.840	139.857	N.3	1	UNK0	-0.235	
2	   N	132.489	135.654	137.707	N.3	1	UNK0	-0.218	
3	   N	130.991	133.280	136.438	N.3	1	UNK0	-0.216	
4	   N	129.642	131.525	137.272	N.3	1	UNK0	-0.235	
5	   N	131.762	132.045	138.182	N.3	1	UNK0	-0.191	
6	   N	133.355	133.768	138.770	N.3	1	UNK0	-0.183	
7	   N	133.442	134.874	132.652	N.pl3	1	UNK0	-0.346	
8	   C	133.103	135.114	138.824	C.3	1	UNK0	0.672	
9	   C	132.712	135.011	136.416	C.3	1	UNK0	0.151	
10	   C	132.450	133.518	136.454	C.3	1	UNK0	0.180	
11	   C	130.732	132.240	137.296	C.3	1	UNK0	0.670	
12	   C	132.918	132.837	137.730	C.3	1	UNK0	0.217	
13	   C	134.163	132.961	139.702	C.3	1	UNK0	0.150	
14	   C	134.950	131.992	138.786	C.3	1	UNK0	0.093	
15	   C	134.120	131.910	137.479	C.3	1	UNK0	0.209	
16	   C	134.163	135.246	135.992	C.2	1	UNK0	0.208	
17	   C	134.360	135.219	133.576	C.2	1	UNK0	0.358	
18	   O	134.423	134.552	134.744	O.2	1	UNK0	-0.302	
19	   O	135.131	136.132	133.357	O.co2	1	UNK0	-0.239	
20	   O	133.682	130.569	137.251	O.2	1	UNK0	-0.362	
21	   O	134.888	132.381	136.370	O.2	1	UNK0	-0.362	
22	   H	133.237	136.791	139.861	 H	1	UNK0	0.174	
23	   H	133.853	135.427	140.625	 H	1	UNK0	0.174	
24	   H	128.952	131.715	136.618	 H	1	UNK0	0.174	
25	   H	129.522	130.802	137.908	 H	1	UNK0	0.174	
26	   H	131.924	136.439	137.781	 H	1	UNK0	0.178	
27	   H	130.336	133.769	135.916	 H	1	UNK0	0.178	
28	   H	131.733	131.481	138.970	 H	1	UNK0	0.180	
29	   H	132.826	134.145	132.827	 H	1	UNK0	0.161	
30	   H	133.398	135.354	131.810	 H	1	UNK0	0.161	
31	   H	134.390	130.123	136.765	 H	1	UNK0	0.213	
32	   H	134.602	133.289	136.198	 H	1	UNK0	0.213	
@<TRIPOS>BOND
1 1 8 1
2 1 22 1
3 1 23 1
4 2 9 1
5 2 26 1
6 3 11 1
7 3 27 1
8 4 24 1
9 4 25 1
10 5 28 1
11 6 13 1
12 7 29 1
13 7 30 1
14 2 8 1
15 6 8 1
16 9 10 1
17 9 16 1
18 3 10 1
19 10 12 1
20 4 11 1
21 5 11 1
22 5 12 1
23 6 12 1
24 12 15 1
25 13 14 1
26 14 15 1
27 15 20 2
28 15 21 2
29 16 18 2
30 7 17 1
31 17 19 2
32 17 18 2
33 20 31 1
34 21 32 1
@<TRIPOS>SUBSTRUCTURE
1	UNK0	1	GROUP	1 ****	UNK
