MODEL 1
REMARK VINA RESULT:      -7.0      0.000      0.000
REMARK  5 active torsions:
REMARK  status: ('A' for Active; 'I' for Inactive)
REMARK    1  A    between atoms: C_6  and  C_7 
REMARK    2  A    between atoms: C_7  and  O_8 
REMARK    3  A    between atoms: O_8  and  C_9 
REMARK       I    between atoms: C_9  and  N_10 
REMARK    4  A    between atoms: C_24  and  O_25 
REMARK    5  A    between atoms: C_24  and  O_26 
ROOT
ATOM      1  N           0     130.661 131.761 135.282  0.00  0.00    -0.235 N 
ATOM      2  H           0     129.846 132.160 135.623  0.00  0.00     0.174 HD
ATOM      3  H           0     131.515 131.984 135.684  0.00  0.00     0.174 HD
ATOM      4  C           0     130.610 130.920 134.286  0.00  0.00     0.672 C 
ATOM      5  N           0     129.416 130.567 133.684  0.00  0.00    -0.218 N 
ATOM      6  C           0     129.436 130.182 132.276  0.00  0.00     0.151 C 
ATOM      7  C           0     130.475 129.118 131.978  0.00  0.00     0.182 C 
ATOM      8  N           0     129.963 127.804 132.426  0.00  0.00    -0.211 N 
ATOM      9  C           0     128.588 127.319 132.290  0.00  0.00     0.169 C 
ATOM     10  C           0     131.013 127.121 132.990  0.00  0.00     0.672 C 
ATOM     11  N           0     131.038 125.829 133.164  0.00  0.00    -0.235 N 
ATOM     12  H           0     130.282 125.288 132.887  0.00  0.00     0.174 HD
ATOM     13  H           0     131.812 125.409 133.570  0.00  0.00     0.174 HD
ATOM     14  C           0     131.774 129.284 132.748  0.00  0.00     0.217 C 
ATOM     15  N           0     132.034 127.967 133.349  0.00  0.00    -0.191 N 
ATOM     16  N           0     131.738 130.334 133.766  0.00  0.00    -0.183 N 
ATOM     17  C           0     133.137 130.673 134.069  0.00  0.00     0.150 C 
ATOM     18  C           0     133.965 130.289 132.826  0.00  0.00     0.093 C 
ATOM     19  C           0     132.944 129.683 131.826  0.00  0.00     0.209 C 
ATOM     20  H           0     128.585 130.574 134.186  0.00  0.00     0.178 HD
ATOM     21  H           0     132.796 127.734 133.901  0.00  0.00     0.180 HD
ENDROOT
BRANCH   6  22
ATOM     22  C           0     129.744 131.420 131.430  0.00  0.00     0.208 C 
BRANCH  22  23
ATOM     23  O           0     128.500 132.029 130.995  0.00  0.00    -0.302 OA
BRANCH  23  24
ATOM     24  C           0     127.942 133.014 131.724  0.00  0.00     0.358 C 
ATOM     25  N           0     128.713 133.783 132.518  0.00  0.00    -0.346 N 
ATOM     26  H           0     129.669 133.627 132.565  0.00  0.00     0.161 HD
ATOM     27  H           0     128.311 134.493 133.043  0.00  0.00     0.161 HD
ATOM     28  O           0     126.745 133.211 131.665  0.00  0.00    -0.239 OA
ENDBRANCH  23  24
ENDBRANCH  22  23
ENDBRANCH   6  22
BRANCH  19  29
ATOM     29  O           0     133.494 128.541 131.168  0.00  0.00    -0.362 OA
ATOM     30  H           0     132.901 128.328 130.434  0.00  0.00     0.213 HD
ENDBRANCH  19  29
BRANCH  19  31
ATOM     31  O           0     132.522 130.663 130.875  0.00  0.00    -0.362 OA
ATOM     32  H           0     132.072 130.186 130.164  0.00  0.00     0.213 HD
ENDBRANCH  19  31
TORSDOF 5
ENDMDL
MODEL 2
REMARK VINA RESULT:      -6.8      3.064      4.928
REMARK  5 active torsions:
REMARK  status: ('A' for Active; 'I' for Inactive)
REMARK    1  A    between atoms: C_6  and  C_7 
REMARK    2  A    between atoms: C_7  and  O_8 
REMARK    3  A    between atoms: O_8  and  C_9 
REMARK       I    between atoms: C_9  and  N_10 
REMARK    4  A    between atoms: C_24  and  O_25 
REMARK    5  A    between atoms: C_24  and  O_26 
ROOT
ATOM      1  N           0     129.866 134.734 132.011  0.00  0.00    -0.235 N 
ATOM      2  H           0     130.061 135.669 132.179  0.00  0.00     0.174 HD
ATOM      3  H           0     129.127 134.489 131.432  0.00  0.00     0.174 HD
ATOM      4  C           0     130.601 133.806 132.558  0.00  0.00     0.672 C 
ATOM      5  N           0     131.668 134.106 133.385  0.00  0.00    -0.218 N 
ATOM      6  C           0     132.029 133.148 134.427  0.00  0.00     0.151 C 
ATOM      7  C           0     132.201 131.740 133.888  0.00  0.00     0.182 C 
ATOM      8  N           0     133.511 131.638 133.209  0.00  0.00    -0.211 N 
ATOM      9  C           0     134.768 132.238 133.659  0.00  0.00     0.169 C 
ATOM     10  C           0     133.333 130.877 132.079  0.00  0.00     0.672 C 
ATOM     11  N           0     134.300 130.281 131.438  0.00  0.00    -0.235 N 
ATOM     12  H           0     135.213 130.361 131.755  0.00  0.00     0.174 HD
ATOM     13  H           0     134.105 129.757 130.645  0.00  0.00     0.174 HD
ATOM     14  C           0     131.200 131.361 132.810  0.00  0.00     0.217 C 
ATOM     15  N           0     132.012 130.820 131.708  0.00  0.00    -0.191 N 
ATOM     16  N           0     130.360 132.469 132.355  0.00  0.00    -0.183 N 
ATOM     17  C           0     129.190 131.866 131.698  0.00  0.00     0.150 C 
ATOM     18  C           0     129.025 130.453 132.296  0.00  0.00     0.093 C 
ATOM     19  C           0     130.200 130.296 133.300  0.00  0.00     0.209 C 
ATOM     20  H           0     132.164 134.933 133.276  0.00  0.00     0.178 HD
ATOM     21  H           0     131.673 130.479 130.867  0.00  0.00     0.180 HD
ENDROOT
BRANCH   6  22
ATOM     22  C           0     130.931 133.137 135.492  0.00  0.00     0.208 C 
BRANCH  22  23
ATOM     23  O           0     131.227 132.116 136.481  0.00  0.00    -0.302 OA
BRANCH  23  24
ATOM     24  C           0     130.478 132.023 137.596  0.00  0.00     0.358 C 
ATOM     25  N           0     130.826 132.713 138.700  0.00  0.00    -0.346 N 
ATOM     26  H           0     131.615 133.276 138.692  0.00  0.00     0.161 HD
ATOM     27  H           0     130.286 132.647 139.504  0.00  0.00     0.161 HD
ATOM     28  O           0     129.488 131.318 137.607  0.00  0.00    -0.239 OA
ENDBRANCH  23  24
ENDBRANCH  22  23
ENDBRANCH   6  22
BRANCH  19  29
ATOM     29  O           0     130.763 128.985 133.222  0.00  0.00    -0.362 OA
ATOM     30  H           0     130.300 128.442 133.875  0.00  0.00     0.213 HD
ENDBRANCH  19  29
BRANCH  19  31
ATOM     31  O           0     129.770 130.586 134.631  0.00  0.00    -0.362 OA
ATOM     32  H           0     129.133 131.311 134.568  0.00  0.00     0.213 HD
ENDBRANCH  19  31
TORSDOF 5
ENDMDL
MODEL 3
REMARK VINA RESULT:      -6.7     13.705     15.953
REMARK  5 active torsions:
REMARK  status: ('A' for Active; 'I' for Inactive)
REMARK    1  A    between atoms: C_6  and  C_7 
REMARK    2  A    between atoms: C_7  and  O_8 
REMARK    3  A    between atoms: O_8  and  C_9 
REMARK       I    between atoms: C_9  and  N_10 
REMARK    4  A    between atoms: C_24  and  O_25 
REMARK    5  A    between atoms: C_24  and  O_26 
ROOT
ATOM      1  N           0     135.878 133.851 148.691  0.00  0.00    -0.235 N 
ATOM      2  H           0     136.297 134.720 148.782  0.00  0.00     0.174 HD
ATOM      3  H           0     135.226 133.556 149.346  0.00  0.00     0.174 HD
ATOM      4  C           0     136.184 133.080 147.684  0.00  0.00     0.672 C 
ATOM      5  N           0     137.102 133.459 146.722  0.00  0.00    -0.218 N 
ATOM      6  C           0     137.862 132.416 146.039  0.00  0.00     0.151 C 
ATOM      7  C           0     136.972 131.325 145.473  0.00  0.00     0.182 C 
ATOM      8  N           0     136.342 131.812 144.226  0.00  0.00    -0.211 N 
ATOM      9  C           0     136.985 132.624 143.191  0.00  0.00     0.169 C 
ATOM     10  C           0     135.043 131.364 144.216  0.00  0.00     0.672 C 
ATOM     11  N           0     134.304 131.286 143.145  0.00  0.00    -0.235 N 
ATOM     12  H           0     134.666 131.553 142.286  0.00  0.00     0.174 HD
ATOM     13  H           0     133.393 130.960 143.207  0.00  0.00     0.174 HD
ATOM     14  C           0     135.793 130.962 146.359  0.00  0.00     0.217 C 
ATOM     15  N           0     134.620 131.008 145.473  0.00  0.00    -0.191 N 
ATOM     16  N           0     135.620 131.839 147.516  0.00  0.00    -0.183 N 
ATOM     17  C           0     134.780 131.107 148.477  0.00  0.00     0.150 C 
ATOM     18  C           0     134.970 129.605 148.176  0.00  0.00     0.093 C 
ATOM     19  C           0     135.940 129.551 146.965  0.00  0.00     0.209 C 
ATOM     20  H           0     137.238 134.395 146.506  0.00  0.00     0.178 HD
ATOM     21  H           0     133.705 130.818 145.731  0.00  0.00     0.180 HD
ENDROOT
BRANCH   6  22
ATOM     22  C           0     138.841 131.786 147.031  0.00  0.00     0.208 C 
BRANCH  22  23
ATOM     23  O           0     139.650 130.793 146.348  0.00  0.00    -0.302 OA
BRANCH  23  24
ATOM     24  C           0     140.647 130.169 147.005  0.00  0.00     0.358 C 
ATOM     25  N           0     141.125 128.996 146.546  0.00  0.00    -0.346 N 
ATOM     26  H           0     140.751 128.600 145.743  0.00  0.00     0.161 HD
ATOM     27  H           0     141.844 128.547 147.018  0.00  0.00     0.161 HD
ATOM     28  O           0     141.115 130.665 148.010  0.00  0.00    -0.239 OA
ENDBRANCH  23  24
ENDBRANCH  22  23
ENDBRANCH   6  22
BRANCH  19  29
ATOM     29  O           0     135.535 128.546 146.034  0.00  0.00    -0.362 OA
ATOM     30  H           0     135.901 127.708 146.351  0.00  0.00     0.213 HD
ENDBRANCH  19  29
BRANCH  19  31
ATOM     31  O           0     137.283 129.330 147.400  0.00  0.00    -0.362 OA
ATOM     32  H           0     137.445 128.379 147.332  0.00  0.00     0.213 HD
ENDBRANCH  19  31
TORSDOF 5
ENDMDL
MODEL 4
REMARK VINA RESULT:      -6.7     14.477     16.083
REMARK  5 active torsions:
REMARK  status: ('A' for Active; 'I' for Inactive)
REMARK    1  A    between atoms: C_6  and  C_7 
REMARK    2  A    between atoms: C_7  and  O_8 
REMARK    3  A    between atoms: O_8  and  C_9 
REMARK       I    between atoms: C_9  and  N_10 
REMARK    4  A    between atoms: C_24  and  O_25 
REMARK    5  A    between atoms: C_24  and  O_26 
ROOT
ATOM      1  N           0     134.109 131.933 149.396  0.00  0.00    -0.235 N 
ATOM      2  H           0     133.617 131.603 150.163  0.00  0.00     0.174 HD
ATOM      3  H           0     133.991 132.851 149.103  0.00  0.00     0.174 HD
ATOM      4  C           0     134.935 131.148 148.763  0.00  0.00     0.672 C 
ATOM      5  N           0     135.141 129.836 149.147  0.00  0.00    -0.218 N 
ATOM      6  C           0     135.521 128.864 148.125  0.00  0.00     0.151 C 
ATOM      7  C           0     136.702 129.328 147.293  0.00  0.00     0.182 C 
ATOM      8  N           0     137.947 129.137 148.069  0.00  0.00    -0.211 N 
ATOM      9  C           0     138.263 127.996 148.930  0.00  0.00     0.169 C 
ATOM     10  C           0     138.752 130.226 147.835  0.00  0.00     0.672 C 
ATOM     11  N           0     140.038 130.245 148.049  0.00  0.00    -0.235 N 
ATOM     12  H           0     140.483 129.455 148.394  0.00  0.00     0.174 HD
ATOM     13  H           0     140.549 131.047 147.863  0.00  0.00     0.174 HD
ATOM     14  C           0     136.694 130.814 146.976  0.00  0.00     0.217 C 
ATOM     15  N           0     138.035 131.291 147.349  0.00  0.00    -0.191 N 
ATOM     16  N           0     135.650 131.569 147.668  0.00  0.00    -0.183 N 
ATOM     17  C           0     135.483 132.829 146.928  0.00  0.00     0.150 C 
ATOM     18  C           0     135.959 132.561 145.485  0.00  0.00     0.093 C 
ATOM     19  C           0     136.436 131.083 145.480  0.00  0.00     0.209 C 
ATOM     20  H           0     135.036 129.566 150.074  0.00  0.00     0.178 HD
ATOM     21  H           0     138.358 132.201 147.263  0.00  0.00     0.180 HD
ENDROOT
BRANCH   6  22
ATOM     22  C           0     134.328 128.630 147.197  0.00  0.00     0.208 C 
BRANCH  22  23
ATOM     23  O           0     133.184 128.197 147.981  0.00  0.00    -0.302 OA
BRANCH  23  24
ATOM     24  C           0     132.281 127.355 147.444  0.00  0.00     0.358 C 
ATOM     25  N           0     132.669 126.139 147.010  0.00  0.00    -0.346 N 
ATOM     26  H           0     133.598 125.871 147.083  0.00  0.00     0.161 HD
ATOM     27  H           0     132.018 125.532 146.624  0.00  0.00     0.161 HD
ATOM     28  O           0     131.117 127.689 147.353  0.00  0.00    -0.239 OA
ENDBRANCH  23  24
ENDBRANCH  22  23
ENDBRANCH   6  22
BRANCH  19  29
ATOM     29  O           0     137.634 130.939 144.716  0.00  0.00    -0.362 OA
ATOM     30  H           0     138.285 131.542 145.099  0.00  0.00     0.213 HD
ENDBRANCH  19  29
BRANCH  19  31
ATOM     31  O           0     135.410 130.221 144.985  0.00  0.00    -0.362 OA
ATOM     32  H           0     135.727 129.865 144.143  0.00  0.00     0.213 HD
ENDBRANCH  19  31
TORSDOF 5
ENDMDL
MODEL 5
REMARK VINA RESULT:      -6.5     12.076     13.940
REMARK  5 active torsions:
REMARK  status: ('A' for Active; 'I' for Inactive)
REMARK    1  A    between atoms: C_6  and  C_7 
REMARK    2  A    between atoms: C_7  and  O_8 
REMARK    3  A    between atoms: O_8  and  C_9 
REMARK       I    between atoms: C_9  and  N_10 
REMARK    4  A    between atoms: C_24  and  O_25 
REMARK    5  A    between atoms: C_24  and  O_26 
ROOT
ATOM      1  N           0     137.792 133.963 142.107  0.00  0.00    -0.235 N 
ATOM      2  H           0     138.258 134.806 141.994  0.00  0.00     0.174 HD
ATOM      3  H           0     137.615 133.399 141.338  0.00  0.00     0.174 HD
ATOM      4  C           0     137.410 133.583 143.295  0.00  0.00     0.672 C 
ATOM      5  N           0     137.646 134.348 144.422  0.00  0.00    -0.218 N 
ATOM      6  C           0     136.713 134.244 145.540  0.00  0.00     0.151 C 
ATOM      7  C           0     136.468 132.807 145.960  0.00  0.00     0.182 C 
ATOM      8  N           0     137.620 132.331 146.756  0.00  0.00    -0.211 N 
ATOM      9  C           0     138.358 133.104 147.757  0.00  0.00     0.169 C 
ATOM     10  C           0     137.871 131.032 146.386  0.00  0.00     0.672 C 
ATOM     11  N           0     138.556 130.185 147.103  0.00  0.00    -0.235 N 
ATOM     12  H           0     138.924 130.461 147.958  0.00  0.00     0.174 HD
ATOM     13  H           0     138.697 129.281 146.783  0.00  0.00     0.174 HD
ATOM     14  C           0     136.394 131.825 144.803  0.00  0.00     0.217 C 
ATOM     15  N           0     137.312 130.735 145.167  0.00  0.00    -0.191 N 
ATOM     16  N           0     136.743 132.401 143.504  0.00  0.00    -0.183 N 
ATOM     17  C           0     136.188 131.500 142.483  0.00  0.00     0.150 C 
ATOM     18  C           0     135.010 130.753 143.143  0.00  0.00     0.093 C 
ATOM     19  C           0     134.969 131.270 144.607  0.00  0.00     0.209 C 
ATOM     20  H           0     138.413 134.941 144.469  0.00  0.00     0.178 HD
ATOM     21  H           0     137.490 129.941 144.639  0.00  0.00     0.180 HD
ENDROOT
BRANCH   6  22
ATOM     22  C           0     135.379 134.871 145.132  0.00  0.00     0.208 C 
BRANCH  22  23
ATOM     23  O           0     135.550 135.605 143.890  0.00  0.00    -0.302 OA
BRANCH  23  24
ATOM     24  C           0     134.581 135.581 142.955  0.00  0.00     0.358 C 
ATOM     25  N           0     134.265 136.706 142.284  0.00  0.00    -0.346 N 
ATOM     26  H           0     134.734 137.533 142.475  0.00  0.00     0.161 HD
ATOM     27  H           0     133.568 136.689 141.610  0.00  0.00     0.161 HD
ATOM     28  O           0     133.994 134.545 142.715  0.00  0.00    -0.239 OA
ENDBRANCH  23  24
ENDBRANCH  22  23
ENDBRANCH   6  22
BRANCH  19  29
ATOM     29  O           0     134.702 130.201 145.516  0.00  0.00    -0.362 OA
ATOM     30  H           0     135.416 130.204 146.168  0.00  0.00     0.213 HD
ENDBRANCH  19  29
BRANCH  19  31
ATOM     31  O           0     134.001 132.312 144.750  0.00  0.00    -0.362 OA
ATOM     32  H           0     134.144 132.927 144.018  0.00  0.00     0.213 HD
ENDBRANCH  19  31
TORSDOF 5
ENDMDL
MODEL 6
REMARK VINA RESULT:      -6.5     13.164     15.011
REMARK  5 active torsions:
REMARK  status: ('A' for Active; 'I' for Inactive)
REMARK    1  A    between atoms: C_6  and  C_7 
REMARK    2  A    between atoms: C_7  and  O_8 
REMARK    3  A    between atoms: O_8  and  C_9 
REMARK       I    between atoms: C_9  and  N_10 
REMARK    4  A    between atoms: C_24  and  O_25 
REMARK    5  A    between atoms: C_24  and  O_26 
ROOT
ATOM      1  N           0     135.459 130.837 143.196  0.00  0.00    -0.235 N 
ATOM      2  H           0     135.541 131.135 142.277  0.00  0.00     0.174 HD
ATOM      3  H           0     134.773 130.196 143.439  0.00  0.00     0.174 HD
ATOM      4  C           0     136.276 131.292 144.105  0.00  0.00     0.672 C 
ATOM      5  N           0     137.274 132.201 143.806  0.00  0.00    -0.218 N 
ATOM      6  C           0     137.709 133.124 144.852  0.00  0.00     0.151 C 
ATOM      7  C           0     138.057 132.414 146.146  0.00  0.00     0.182 C 
ATOM      8  N           0     139.391 131.790 146.013  0.00  0.00    -0.211 N 
ATOM      9  C           0     140.557 132.375 145.347  0.00  0.00     0.169 C 
ATOM     10  C           0     139.339 130.563 146.628  0.00  0.00     0.672 C 
ATOM     11  N           0     140.387 129.896 147.022  0.00  0.00    -0.235 N 
ATOM     12  H           0     141.275 130.264 146.887  0.00  0.00     0.174 HD
ATOM     13  H           0     140.280 129.033 147.451  0.00  0.00     0.174 HD
ATOM     14  C           0     137.142 131.248 146.481  0.00  0.00     0.217 C 
ATOM     15  N           0     138.046 130.125 146.776  0.00  0.00    -0.191 N 
ATOM     16  N           0     136.196 130.903 145.420  0.00  0.00    -0.183 N 
ATOM     17  C           0     135.125 130.117 146.051  0.00  0.00     0.150 C 
ATOM     18  C           0     135.103 130.515 147.541  0.00  0.00     0.093 C 
ATOM     19  C           0     136.253 131.545 147.706  0.00  0.00     0.209 C 
ATOM     20  H           0     137.677 132.226 142.924  0.00  0.00     0.178 HD
ATOM     21  H           0     137.775 129.231 147.034  0.00  0.00     0.180 HD
ENDROOT
BRANCH   6  22
ATOM     22  C           0     136.584 134.124 145.127  0.00  0.00     0.208 C 
BRANCH  22  23
ATOM     23  O           0     136.423 134.998 143.978  0.00  0.00    -0.302 OA
BRANCH  23  24
ATOM     24  C           0     135.255 135.020 143.308  0.00  0.00     0.358 C 
ATOM     25  N           0     134.750 136.192 142.875  0.00  0.00    -0.346 N 
ATOM     26  H           0     135.227 137.020 143.046  0.00  0.00     0.161 HD
ATOM     27  H           0     133.909 136.209 142.391  0.00  0.00     0.161 HD
ATOM     28  O           0     134.658 133.984 143.093  0.00  0.00    -0.239 OA
ENDBRANCH  23  24
ENDBRANCH  22  23
ENDBRANCH   6  22
BRANCH  19  29
ATOM     29  O           0     136.964 131.322 148.925  0.00  0.00    -0.362 OA
ATOM     30  H           0     136.799 130.405 149.181  0.00  0.00     0.213 HD
ENDBRANCH  19  29
BRANCH  19  31
ATOM     31  O           0     135.750 132.881 147.648  0.00  0.00    -0.362 OA
ATOM     32  H           0     135.978 133.227 146.774  0.00  0.00     0.213 HD
ENDBRANCH  19  31
TORSDOF 5
ENDMDL
MODEL 7
REMARK VINA RESULT:      -6.4     13.907     15.945
REMARK  5 active torsions:
REMARK  status: ('A' for Active; 'I' for Inactive)
REMARK    1  A    between atoms: C_6  and  C_7 
REMARK    2  A    between atoms: C_7  and  O_8 
REMARK    3  A    between atoms: O_8  and  C_9 
REMARK       I    between atoms: C_9  and  N_10 
REMARK    4  A    between atoms: C_24  and  O_25 
REMARK    5  A    between atoms: C_24  and  O_26 
ROOT
ATOM      1  N           0     138.883 130.218 146.337  0.00  0.00    -0.235 N 
ATOM      2  H           0     138.896 129.337 145.934  0.00  0.00     0.174 HD
ATOM      3  H           0     139.667 130.552 146.799  0.00  0.00     0.174 HD
ATOM      4  C           0     137.812 130.958 146.252  0.00  0.00     0.672 C 
ATOM      5  N           0     136.672 130.529 145.599  0.00  0.00    -0.218 N 
ATOM      6  C           0     135.380 131.042 146.046  0.00  0.00     0.151 C 
ATOM      7  C           0     135.357 132.556 146.140  0.00  0.00     0.182 C 
ATOM      8  N           0     135.216 133.123 144.781  0.00  0.00    -0.211 N 
ATOM      9  C           0     134.366 132.600 143.709  0.00  0.00     0.169 C 
ATOM     10  C           0     136.026 134.230 144.708  0.00  0.00     0.672 C 
ATOM     11  N           0     135.897 135.174 143.818  0.00  0.00    -0.235 N 
ATOM     12  H           0     135.194 135.120 143.153  0.00  0.00     0.174 HD
ATOM     13  H           0     136.505 135.930 143.822  0.00  0.00     0.174 HD
ATOM     14  C           0     136.647 133.167 146.658  0.00  0.00     0.217 C 
ATOM     15  N           0     136.988 134.219 145.688  0.00  0.00    -0.191 N 
ATOM     16  N           0     137.744 132.211 146.812  0.00  0.00    -0.183 N 
ATOM     17  C           0     138.717 132.832 147.724  0.00  0.00     0.150 C 
ATOM     18  C           0     137.935 133.849 148.580  0.00  0.00     0.093 C 
ATOM     19  C           0     136.473 133.781 148.061  0.00  0.00     0.209 C 
ATOM     20  H           0     136.729 129.902 144.860  0.00  0.00     0.178 HD
ATOM     21  H           0     137.758 134.806 145.734  0.00  0.00     0.180 HD
ENDROOT
BRANCH   6  22
ATOM     22  C           0     135.068 130.459 147.426  0.00  0.00     0.208 C 
BRANCH  22  23
ATOM     23  O           0     135.149 129.010 147.368  0.00  0.00    -0.302 OA
BRANCH  23  24
ATOM     24  C           0     134.190 128.259 147.944  0.00  0.00     0.358 C 
ATOM     25  N           0     132.944 128.250 147.432  0.00  0.00    -0.346 N 
ATOM     26  H           0     132.736 128.784 146.649  0.00  0.00     0.161 HD
ATOM     27  H           0     132.254 127.708 147.846  0.00  0.00     0.161 HD
ATOM     28  O           0     134.450 127.589 148.923  0.00  0.00    -0.239 OA
ENDBRANCH  23  24
ENDBRANCH  22  23
ENDBRANCH   6  22
BRANCH  19  29
ATOM     29  O           0     135.899 135.087 147.985  0.00  0.00    -0.362 OA
ATOM     30  H           0     135.904 135.340 147.052  0.00  0.00     0.213 HD
ENDBRANCH  19  29
BRANCH  19  31
ATOM     31  O           0     135.681 132.925 148.888  0.00  0.00    -0.362 OA
ATOM     32  H           0     135.490 133.418 149.698  0.00  0.00     0.213 HD
ENDBRANCH  19  31
TORSDOF 5
ENDMDL
MODEL 8
REMARK VINA RESULT:      -6.4      3.623      6.064
REMARK  5 active torsions:
REMARK  status: ('A' for Active; 'I' for Inactive)
REMARK    1  A    between atoms: C_6  and  C_7 
REMARK    2  A    between atoms: C_7  and  O_8 
REMARK    3  A    between atoms: O_8  and  C_9 
REMARK       I    between atoms: C_9  and  N_10 
REMARK    4  A    between atoms: C_24  and  O_25 
REMARK    5  A    between atoms: C_24  and  O_26 
ROOT
ATOM      1  N           0     133.225 135.541 136.315  0.00  0.00    -0.235 N 
ATOM      2  H           0     133.944 136.174 136.168  0.00  0.00     0.174 HD
ATOM      3  H           0     132.806 135.477 137.187  0.00  0.00     0.174 HD
ATOM      4  C           0     132.815 134.781 135.338  0.00  0.00     0.672 C 
ATOM      5  N           0     133.376 134.841 134.075  0.00  0.00    -0.218 N 
ATOM      6  C           0     133.366 133.634 133.253  0.00  0.00     0.151 C 
ATOM      7  C           0     131.987 133.009 133.153  0.00  0.00     0.182 C 
ATOM      8  N           0     131.174 133.783 132.190  0.00  0.00    -0.211 N 
ATOM      9  C           0     131.640 134.352 130.924  0.00  0.00     0.169 C 
ATOM     10  C           0     129.901 133.870 132.700  0.00  0.00     0.672 C 
ATOM     11  N           0     128.845 134.154 131.989  0.00  0.00    -0.235 N 
ATOM     12  H           0     128.932 134.318 131.037  0.00  0.00     0.174 HD
ATOM     13  H           0     127.974 134.200 132.411  0.00  0.00     0.174 HD
ATOM     14  C           0     131.183 133.069 134.441  0.00  0.00     0.217 C 
ATOM     15  N           0     129.877 133.622 134.050  0.00  0.00    -0.191 N 
ATOM     16  N           0     131.803 133.866 135.499  0.00  0.00    -0.183 N 
ATOM     17  C           0     131.172 133.451 136.761  0.00  0.00     0.150 C 
ATOM     18  C           0     130.650 132.015 136.544  0.00  0.00     0.093 C 
ATOM     19  C           0     130.997 131.673 135.070  0.00  0.00     0.209 C 
ATOM     20  H           0     133.766 135.665 133.743  0.00  0.00     0.178 HD
ATOM     21  H           0     129.127 133.781 134.644  0.00  0.00     0.180 HD
ENDROOT
BRANCH   6  22
ATOM     22  C           0     134.326 132.612 133.865  0.00  0.00     0.208 C 
BRANCH  22  23
ATOM     23  O           0     134.535 131.523 132.927  0.00  0.00    -0.302 OA
BRANCH  23  24
ATOM     24  C           0     135.122 130.383 133.339  0.00  0.00     0.358 C 
ATOM     25  N           0     134.877 129.908 134.576  0.00  0.00    -0.346 N 
ATOM     26  H           0     134.278 130.388 135.170  0.00  0.00     0.161 HD
ATOM     27  H           0     135.299 129.087 134.873  0.00  0.00     0.161 HD
ATOM     28  O           0     135.871 129.782 132.595  0.00  0.00    -0.239 OA
ENDBRANCH  23  24
ENDBRANCH  22  23
ENDBRANCH   6  22
BRANCH  19  29
ATOM     29  O           0     129.925 130.965 134.446  0.00  0.00    -0.362 OA
ATOM     30  H           0     129.145 131.092 135.003  0.00  0.00     0.213 HD
ENDBRANCH  19  29
BRANCH  19  31
ATOM     31  O           0     132.212 130.924 134.996  0.00  0.00    -0.362 OA
ATOM     32  H           0     132.627 131.148 134.151  0.00  0.00     0.213 HD
ENDBRANCH  19  31
TORSDOF 5
ENDMDL
MODEL 9
REMARK VINA RESULT:      -6.3     13.874     15.956
REMARK  5 active torsions:
REMARK  status: ('A' for Active; 'I' for Inactive)
REMARK    1  A    between atoms: C_6  and  C_7 
REMARK    2  A    between atoms: C_7  and  O_8 
REMARK    3  A    between atoms: O_8  and  C_9 
REMARK       I    between atoms: C_9  and  N_10 
REMARK    4  A    between atoms: C_24  and  O_25 
REMARK    5  A    between atoms: C_24  and  O_26 
ROOT
ATOM      1  N           0     139.623 130.133 146.662  0.00  0.00    -0.235 N 
ATOM      2  H           0     140.394 130.539 146.236  0.00  0.00     0.174 HD
ATOM      3  H           0     139.675 129.223 146.993  0.00  0.00     0.174 HD
ATOM      4  C           0     138.518 130.813 146.796  0.00  0.00     0.672 C 
ATOM      5  N           0     138.398 132.115 146.346  0.00  0.00    -0.218 N 
ATOM      6  C           0     137.079 132.589 145.936  0.00  0.00     0.151 C 
ATOM      7  C           0     136.015 132.327 146.985  0.00  0.00     0.182 C 
ATOM      8  N           0     136.143 133.331 148.065  0.00  0.00    -0.211 N 
ATOM      9  C           0     136.443 134.754 147.893  0.00  0.00     0.169 C 
ATOM     10  C           0     135.928 132.685 149.258  0.00  0.00     0.672 C 
ATOM     11  N           0     135.608 133.287 150.369  0.00  0.00    -0.235 N 
ATOM     12  H           0     135.507 134.252 150.386  0.00  0.00     0.174 HD
ATOM     13  H           0     135.470 132.771 151.178  0.00  0.00     0.174 HD
ATOM     14  C           0     136.165 130.998 147.704  0.00  0.00     0.217 C 
ATOM     15  N           0     136.092 131.327 149.136  0.00  0.00    -0.191 N 
ATOM     16  N           0     137.399 130.280 147.387  0.00  0.00    -0.183 N 
ATOM     17  C           0     137.178 128.876 147.768  0.00  0.00     0.150 C 
ATOM     18  C           0     135.654 128.640 147.726  0.00  0.00     0.093 C 
ATOM     19  C           0     135.040 130.011 147.332  0.00  0.00     0.209 C 
ATOM     20  H           0     139.172 132.700 146.303  0.00  0.00     0.178 HD
ATOM     21  H           0     136.147 130.694 149.868  0.00  0.00     0.180 HD
ENDROOT
BRANCH   6  22
ATOM     22  C           0     136.679 131.878 144.642  0.00  0.00     0.208 C 
BRANCH  22  23
ATOM     23  O           0     137.657 132.167 143.608  0.00  0.00    -0.302 OA
BRANCH  23  24
ATOM     24  C           0     137.566 133.306 142.895  0.00  0.00     0.358 C 
ATOM     25  N           0     136.561 133.468 142.011  0.00  0.00    -0.346 N 
ATOM     26  H           0     135.904 132.765 141.889  0.00  0.00     0.161 HD
ATOM     27  H           0     136.495 134.288 141.498  0.00  0.00     0.161 HD
ATOM     28  O           0     138.388 134.187 143.049  0.00  0.00    -0.239 OA
ENDBRANCH  23  24
ENDBRANCH  22  23
ENDBRANCH   6  22
BRANCH  19  29
ATOM     29  O           0     133.855 130.272 148.087  0.00  0.00    -0.362 OA
ATOM     30  H           0     133.131 130.352 147.451  0.00  0.00     0.213 HD
ENDBRANCH  19  29
BRANCH  19  31
ATOM     31  O           0     134.771 130.062 145.930  0.00  0.00    -0.362 OA
ATOM     32  H           0     134.562 130.983 145.719  0.00  0.00     0.213 HD
ENDBRANCH  19  31
TORSDOF 5
ENDMDL
