# created with PyMOL 2.3.4
@<TRIPOS>MOLECULE
ligand_out_0001
32 34 1                 
SMALL
USER_CHARGES
@<TRIPOS>ATOM
1	   N	130.661	131.761	135.282	N.3	1	UNK0	-0.235	
2	   N	129.416	130.567	133.684	N.3	1	UNK0	-0.218	
3	   N	129.963	127.804	132.426	N.3	1	UNK0	-0.211	
4	   N	131.038	125.829	133.164	N.3	1	UNK0	-0.235	
5	   N	132.034	127.967	133.349	N.3	1	UNK0	-0.191	
6	   N	131.738	130.334	133.766	N.3	1	UNK0	-0.183	
7	   N	128.713	133.783	132.518	N.pl3	1	UNK0	-0.346	
8	   C	130.610	130.920	134.286	C.3	1	UNK0	0.672	
9	   C	129.436	130.182	132.276	C.3	1	UNK0	0.151	
10	   C	130.475	129.118	131.978	C.3	1	UNK0	0.182	
11	   C	128.588	127.319	132.290	C.3	1	UNK0	0.169	
12	   C	131.013	127.121	132.990	C.3	1	UNK0	0.672	
13	   C	131.774	129.284	132.748	C.3	1	UNK0	0.217	
14	   C	133.137	130.673	134.069	C.3	1	UNK0	0.150	
15	   C	133.965	130.289	132.826	C.3	1	UNK0	0.093	
16	   C	132.944	129.683	131.826	C.3	1	UNK0	0.209	
17	   C	129.744	131.420	131.430	C.2	1	UNK0	0.208	
18	   C	127.942	133.014	131.724	C.2	1	UNK0	0.358	
19	   O	128.500	132.029	130.995	O.2	1	UNK0	-0.302	
20	   O	126.745	133.211	131.665	O.co2	1	UNK0	-0.239	
21	   O	133.494	128.541	131.168	O.2	1	UNK0	-0.362	
22	   O	132.522	130.663	130.875	O.2	1	UNK0	-0.362	
23	   H	129.846	132.160	135.623	 H	1	UNK0	0.174	
24	   H	131.515	131.984	135.684	 H	1	UNK0	0.174	
25	   H	130.282	125.288	132.887	 H	1	UNK0	0.174	
26	   H	131.812	125.409	133.570	 H	1	UNK0	0.174	
27	   H	128.585	130.574	134.186	 H	1	UNK0	0.178	
28	   H	132.796	127.734	133.901	 H	1	UNK0	0.180	
29	   H	129.669	133.627	132.565	 H	1	UNK0	0.161	
30	   H	128.311	134.493	133.043	 H	1	UNK0	0.161	
31	   H	132.901	128.328	130.434	 H	1	UNK0	0.213	
32	   H	132.072	130.186	130.164	 H	1	UNK0	0.213	
@<TRIPOS>BOND
1 1 8 1
2 1 23 1
3 1 24 1
4 2 9 1
5 2 27 1
6 3 11 1
7 3 12 1
8 4 25 1
9 4 26 1
10 5 28 1
11 6 14 1
12 7 29 1
13 7 30 1
14 2 8 1
15 6 8 1
16 9 10 1
17 9 17 1
18 3 10 1
19 10 13 1
20 4 12 1
21 5 12 1
22 5 13 1
23 6 13 1
24 13 16 1
25 14 15 1
26 15 16 1
27 16 21 2
28 16 22 2
29 17 19 2
30 7 18 1
31 18 20 2
32 18 19 2
33 21 31 1
34 22 32 1
@<TRIPOS>SUBSTRUCTURE
1	UNK0	1	GROUP	1 ****	UNK
