# created with PyMOL 2.3.4
@<TRIPOS>MOLECULE
ligand_out_0001
32 35 1                 
SMALL
USER_CHARGES
@<TRIPOS>ATOM
1	   N	133.686	135.248	139.352	N.3	1	UNK0	-0.235	
2	   N	132.897	133.467	140.665	N.pl3	1	UNK0	-0.200	
3	   N	134.020	135.281	141.680	N.3	1	UNK0	-0.211	
4	   C	133.538	134.687	140.519	C.3	1	UNK0	0.670	
5	   C	133.486	132.487	141.593	C.2	1	UNK0	0.244	
6	   C	133.768	133.191	142.923	C.3	1	UNK0	0.101	
7	   C	134.662	134.410	142.657	C.3	1	UNK0	0.119	
8	   C	136.001	133.901	142.106	C.2	1	UNK0	0.243	
9	   C	134.485	132.246	143.886	C.2	1	UNK0	0.177	
10	   C	136.587	132.971	143.175	C.3	1	UNK0	0.311	
11	   C	134.712	132.980	145.216	C.3	1	UNK0	0.134	
12	   C	135.635	134.179	144.929	C.2	1	UNK0	0.198	
13	   C	134.933	135.137	143.973	C.2	1	UNK0	0.182	
14	   C	135.369	132.035	146.224	C.2	1	UNK0	0.207	
15	   O	135.747	131.844	143.365	O.2	1	UNK0	-0.322	
16	   O	136.849	133.696	144.363	O.2	1	UNK0	-0.319	
17	   O	133.463	133.446	145.730	O.2	1	UNK0	-0.382	
18	   O	134.926	130.698	145.982	O.2	1	UNK0	-0.398	
19	   O	135.769	136.270	143.731	O.2	1	UNK0	-0.390	
20	   O	132.568	131.411	141.804	O.2	1	UNK0	-0.376	
21	   O	137.847	132.497	142.693	O.2	1	UNK0	-0.341	
22	   O	135.789	133.181	140.890	O.2	1	UNK0	-0.385	
23	   H	133.344	134.810	138.557	 H	1	UNK0	0.174	
24	   H	134.136	136.104	139.278	 H	1	UNK0	0.174	
25	   H	132.087	133.266	140.173	 H	1	UNK0	0.180	
26	   H	133.927	136.234	141.834	 H	1	UNK0	0.178	
27	   H	133.410	133.148	146.648	 H	1	UNK0	0.210	
28	   H	134.987	130.227	146.824	 H	1	UNK0	0.209	
29	   H	136.337	136.042	142.982	 H	1	UNK0	0.210	
30	   H	131.982	131.390	141.034	 H	1	UNK0	0.212	
31	   H	137.668	132.010	141.878	 H	1	UNK0	0.215	
32	   H	136.534	132.573	140.791	 H	1	UNK0	0.210	
@<TRIPOS>BOND
1 1 4 1
2 1 23 1
3 1 24 1
4 2 5 1
5 2 25 1
6 3 26 1
7 2 4 1
8 3 4 1
9 5 6 1
10 5 20 2
11 6 7 1
12 6 9 1
13 3 7 1
14 7 8 1
15 7 13 1
16 8 10 1
17 8 22 2
18 9 11 1
19 9 15 2
20 10 16 2
21 10 21 2
22 11 12 1
23 11 14 1
24 11 17 2
25 12 13 1
26 13 19 2
27 14 18 2
28 10 15 2
29 12 16 2
30 17 27 1
31 18 28 1
32 19 29 1
33 20 30 1
34 21 31 1
35 22 32 1
@<TRIPOS>SUBSTRUCTURE
1	UNK0	1	GROUP	1 ****	UNK
