MODEL 1
REMARK VINA RESULT:      -7.8      0.000      0.000
REMARK  7 active torsions:
REMARK  status: ('A' for Active; 'I' for Inactive)
REMARK    1  A    between atoms: C_6  and  O_7 
REMARK    2  A    between atoms: C_10  and  O_11 
REMARK    3  A    between atoms: C_15  and  O_16 
REMARK    4  A    between atoms: C_18  and  O_19 
REMARK    5  A    between atoms: C_18  and  C_20 
REMARK    6  A    between atoms: C_20  and  O_21 
REMARK    7  A    between atoms: C_23  and  O_24 
ROOT
ATOM      1  N           0     133.686 135.248 139.352  0.00  0.00    -0.235 N 
ATOM      2  H           0     133.344 134.810 138.557  0.00  0.00     0.174 HD
ATOM      3  H           0     134.136 136.104 139.278  0.00  0.00     0.174 HD
ATOM      4  C           0     133.538 134.687 140.519  0.00  0.00     0.670 C 
ATOM      5  N           0     132.897 133.467 140.665  0.00  0.00    -0.200 N 
ATOM      6  C           0     133.486 132.487 141.593  0.00  0.00     0.244 C 
ATOM      7  C           0     133.768 133.191 142.923  0.00  0.00     0.101 C 
ATOM      8  C           0     134.662 134.410 142.657  0.00  0.00     0.119 C 
ATOM      9  C           0     136.001 133.901 142.106  0.00  0.00     0.243 C 
ATOM     10  N           0     134.020 135.281 141.680  0.00  0.00    -0.211 N 
ATOM     11  C           0     134.485 132.246 143.886  0.00  0.00     0.177 C 
ATOM     12  O           0     135.747 131.844 143.365  0.00  0.00    -0.322 OA
ATOM     13  C           0     136.587 132.971 143.175  0.00  0.00     0.311 C 
ATOM     14  O           0     136.849 133.696 144.363  0.00  0.00    -0.319 OA
ATOM     15  C           0     134.712 132.980 145.216  0.00  0.00     0.134 C 
ATOM     16  C           0     135.635 134.179 144.929  0.00  0.00     0.198 C 
ATOM     17  C           0     134.933 135.137 143.973  0.00  0.00     0.182 C 
ATOM     18  H           0     132.087 133.266 140.173  0.00  0.00     0.180 HD
ATOM     19  H           0     133.927 136.234 141.834  0.00  0.00     0.178 HD
ENDROOT
BRANCH  15  20
ATOM     20  O           0     133.463 133.446 145.730  0.00  0.00    -0.382 OA
ATOM     21  H           0     133.410 133.148 146.648  0.00  0.00     0.210 HD
ENDBRANCH  15  20
BRANCH  15  22
ATOM     22  C           0     135.369 132.035 146.224  0.00  0.00     0.207 C 
BRANCH  22  23
ATOM     23  O           0     134.926 130.698 145.982  0.00  0.00    -0.398 OA
ATOM     24  H           0     134.987 130.227 146.824  0.00  0.00     0.209 HD
ENDBRANCH  22  23
ENDBRANCH  15  22
BRANCH  17  25
ATOM     25  O           0     135.769 136.270 143.731  0.00  0.00    -0.390 OA
ATOM     26  H           0     136.337 136.042 142.982  0.00  0.00     0.210 HD
ENDBRANCH  17  25
BRANCH   6  27
ATOM     27  O           0     132.568 131.411 141.804  0.00  0.00    -0.376 OA
ATOM     28  H           0     131.982 131.390 141.034  0.00  0.00     0.212 HD
ENDBRANCH   6  27
BRANCH  13  29
ATOM     29  O           0     137.847 132.497 142.693  0.00  0.00    -0.341 OA
ATOM     30  H           0     137.668 132.010 141.878  0.00  0.00     0.215 HD
ENDBRANCH  13  29
BRANCH   9  31
ATOM     31  O           0     135.789 133.181 140.890  0.00  0.00    -0.385 OA
ATOM     32  H           0     136.534 132.573 140.791  0.00  0.00     0.210 HD
ENDBRANCH   9  31
TORSDOF 7
ENDMDL
MODEL 2
REMARK VINA RESULT:      -7.7      2.009      3.178
REMARK  7 active torsions:
REMARK  status: ('A' for Active; 'I' for Inactive)
REMARK    1  A    between atoms: C_6  and  O_7 
REMARK    2  A    between atoms: C_10  and  O_11 
REMARK    3  A    between atoms: C_15  and  O_16 
REMARK    4  A    between atoms: C_18  and  O_19 
REMARK    5  A    between atoms: C_18  and  C_20 
REMARK    6  A    between atoms: C_20  and  O_21 
REMARK    7  A    between atoms: C_23  and  O_24 
ROOT
ATOM      1  N           0     134.125 136.846 142.186  0.00  0.00    -0.235 N 
ATOM      2  H           0     133.289 137.328 142.285  0.00  0.00     0.174 HD
ATOM      3  H           0     134.602 136.869 141.342  0.00  0.00     0.174 HD
ATOM      4  C           0     134.609 136.170 143.190  0.00  0.00     0.670 C 
ATOM      5  N           0     133.958 136.118 144.413  0.00  0.00    -0.200 N 
ATOM      6  C           0     133.901 134.819 145.107  0.00  0.00     0.244 C 
ATOM      7  C           0     135.313 134.228 145.140  0.00  0.00     0.101 C 
ATOM      8  C           0     135.847 134.142 143.705  0.00  0.00     0.119 C 
ATOM      9  C           0     134.952 133.168 142.926  0.00  0.00     0.243 C 
ATOM     10  N           0     135.801 135.462 143.088  0.00  0.00    -0.211 N 
ATOM     11  C           0     135.290 132.827 145.750  0.00  0.00     0.177 C 
ATOM     12  O           0     134.498 131.941 144.967  0.00  0.00    -0.322 OA
ATOM     13  C           0     135.031 131.823 143.658  0.00  0.00     0.311 C 
ATOM     14  O           0     136.356 131.325 143.623  0.00  0.00    -0.319 OA
ATOM     15  C           0     136.728 132.291 145.799  0.00  0.00     0.134 C 
ATOM     16  C           0     137.230 132.184 144.347  0.00  0.00     0.198 C 
ATOM     17  C           0     137.266 133.575 143.723  0.00  0.00     0.182 C 
ATOM     18  H           0     133.555 136.910 144.800  0.00  0.00     0.180 HD
ATOM     19  H           0     136.569 135.835 142.629  0.00  0.00     0.178 HD
ENDROOT
BRANCH  15  20
ATOM     20  O           0     137.558 133.195 146.530  0.00  0.00    -0.382 OA
ATOM     21  H           0     137.616 132.855 147.433  0.00  0.00     0.210 HD
ENDBRANCH  15  20
BRANCH  15  22
ATOM     22  C           0     136.746 130.914 146.467  0.00  0.00     0.207 C 
BRANCH  22  23
ATOM     23  O           0     137.943 130.224 146.103  0.00  0.00    -0.398 OA
ATOM     24  H           0     137.779 129.283 146.254  0.00  0.00     0.209 HD
ENDBRANCH  22  23
ENDBRANCH  15  22
BRANCH  17  25
ATOM     25  O           0     137.765 133.488 142.387  0.00  0.00    -0.390 OA
ATOM     26  H           0     137.873 132.547 142.190  0.00  0.00     0.210 HD
ENDBRANCH  17  25
BRANCH   6  27
ATOM     27  O           0     133.427 135.008 146.442  0.00  0.00    -0.376 OA
ATOM     28  H           0     132.582 135.476 146.375  0.00  0.00     0.212 HD
ENDBRANCH   6  27
BRANCH  13  29
ATOM     29  O           0     134.219 130.891 142.942  0.00  0.00    -0.341 OA
ATOM     30  H           0     133.374 130.841 143.408  0.00  0.00     0.215 HD
ENDBRANCH  13  29
BRANCH   9  31
ATOM     31  O           0     133.604 133.643 142.915  0.00  0.00    -0.385 OA
ATOM     32  H           0     133.646 134.606 142.983  0.00  0.00     0.210 HD
ENDBRANCH   9  31
TORSDOF 7
ENDMDL
MODEL 3
REMARK VINA RESULT:      -7.6      2.605      4.751
REMARK  7 active torsions:
REMARK  status: ('A' for Active; 'I' for Inactive)
REMARK    1  A    between atoms: C_6  and  O_7 
REMARK    2  A    between atoms: C_10  and  O_11 
REMARK    3  A    between atoms: C_15  and  O_16 
REMARK    4  A    between atoms: C_18  and  O_19 
REMARK    5  A    between atoms: C_18  and  C_20 
REMARK    6  A    between atoms: C_20  and  O_21 
REMARK    7  A    between atoms: C_23  and  O_24 
ROOT
ATOM      1  N           0     135.650 132.260 147.830  0.00  0.00    -0.235 N 
ATOM      2  H           0     135.767 132.844 148.596  0.00  0.00     0.174 HD
ATOM      3  H           0     136.067 131.384 147.819  0.00  0.00     0.174 HD
ATOM      4  C           0     134.930 132.652 146.817  0.00  0.00     0.670 C 
ATOM      5  N           0     134.315 133.894 146.798  0.00  0.00    -0.200 N 
ATOM      6  C           0     134.353 134.662 145.542  0.00  0.00     0.244 C 
ATOM      7  C           0     133.909 133.743 144.400  0.00  0.00     0.101 C 
ATOM      8  C           0     134.802 132.496 144.394  0.00  0.00     0.119 C 
ATOM      9  C           0     136.239 132.946 144.096  0.00  0.00     0.243 C 
ATOM     10  N           0     134.744 131.847 145.698  0.00  0.00    -0.211 N 
ATOM     11  C           0     134.039 134.459 143.057  0.00  0.00     0.177 C 
ATOM     12  O           0     135.393 134.807 142.792  0.00  0.00    -0.322 OA
ATOM     13  C           0     136.203 133.644 142.731  0.00  0.00     0.311 C 
ATOM     14  O           0     135.813 132.728 141.724  0.00  0.00    -0.319 OA
ATOM     15  C           0     133.547 133.516 141.950  0.00  0.00     0.134 C 
ATOM     16  C           0     134.477 132.288 141.942  0.00  0.00     0.198 C 
ATOM     17  C           0     134.355 131.557 143.274  0.00  0.00     0.182 C 
ATOM     18  H           0     133.873 134.245 147.586  0.00  0.00     0.180 HD
ATOM     19  H           0     134.577 130.896 145.785  0.00  0.00     0.178 HD
ENDROOT
BRANCH  15  20
ATOM     20  O           0     132.207 133.103 142.225  0.00  0.00    -0.382 OA
ATOM     21  H           0     132.257 132.442 142.928  0.00  0.00     0.210 HD
ENDBRANCH  15  20
BRANCH  15  22
ATOM     22  C           0     133.603 134.231 140.598  0.00  0.00     0.207 C 
BRANCH  22  23
ATOM     23  O           0     133.517 135.642 140.802  0.00  0.00    -0.398 OA
ATOM     24  H           0     133.824 136.062 139.987  0.00  0.00     0.209 HD
ENDBRANCH  22  23
ENDBRANCH  15  22
BRANCH  17  25
ATOM     25  O           0     135.188 130.396 143.261  0.00  0.00    -0.390 OA
ATOM     26  H           0     134.879 129.839 142.533  0.00  0.00     0.210 HD
ENDBRANCH  17  25
BRANCH   6  27
ATOM     27  O           0     133.466 135.779 145.633  0.00  0.00    -0.376 OA
ATOM     28  H           0     132.605 135.431 145.904  0.00  0.00     0.212 HD
ENDBRANCH   6  27
BRANCH  13  29
ATOM     29  O           0     137.535 134.059 142.421  0.00  0.00    -0.341 OA
ATOM     30  H           0     137.491 134.999 142.201  0.00  0.00     0.215 HD
ENDBRANCH  13  29
BRANCH   9  31
ATOM     31  O           0     136.685 133.857 145.103  0.00  0.00    -0.385 OA
ATOM     32  H           0     136.090 134.618 145.075  0.00  0.00     0.210 HD
ENDBRANCH   9  31
TORSDOF 7
ENDMDL
MODEL 4
REMARK VINA RESULT:      -7.3      2.999      4.953
REMARK  7 active torsions:
REMARK  status: ('A' for Active; 'I' for Inactive)
REMARK    1  A    between atoms: C_6  and  O_7 
REMARK    2  A    between atoms: C_10  and  O_11 
REMARK    3  A    between atoms: C_15  and  O_16 
REMARK    4  A    between atoms: C_18  and  O_19 
REMARK    5  A    between atoms: C_18  and  C_20 
REMARK    6  A    between atoms: C_20  and  O_21 
REMARK    7  A    between atoms: C_23  and  O_24 
ROOT
ATOM      1  N           0     136.284 128.924 146.600  0.00  0.00    -0.235 N 
ATOM      2  H           0     136.880 128.727 147.340  0.00  0.00     0.174 HD
ATOM      3  H           0     136.008 128.215 145.998  0.00  0.00     0.174 HD
ATOM      4  C           0     135.852 130.140 146.417  0.00  0.00     0.670 C 
ATOM      5  N           0     136.220 131.177 147.258  0.00  0.00    -0.200 N 
ATOM      6  C           0     136.553 132.475 146.646  0.00  0.00     0.244 C 
ATOM      7  C           0     135.434 132.848 145.669  0.00  0.00     0.101 C 
ATOM      8  C           0     135.262 131.709 144.656  0.00  0.00     0.119 C 
ATOM      9  C           0     136.564 131.593 143.851  0.00  0.00     0.243 C 
ATOM     10  N           0     135.002 130.462 145.365  0.00  0.00    -0.211 N 
ATOM     11  C           0     135.786 134.134 144.921  0.00  0.00     0.177 C 
ATOM     12  O           0     136.965 133.967 144.142  0.00  0.00    -0.322 OA
ATOM     13  C           0     136.778 132.950 143.171  0.00  0.00     0.311 C 
ATOM     14  O           0     135.724 133.213 142.263  0.00  0.00    -0.319 OA
ATOM     15  C           0     134.622 134.490 143.985  0.00  0.00     0.134 C 
ATOM     16  C           0     134.489 133.348 142.960  0.00  0.00     0.198 C 
ATOM     17  C           0     134.132 132.056 143.688  0.00  0.00     0.182 C 
ATOM     18  H           0     136.256 131.054 148.219  0.00  0.00     0.180 HD
ATOM     19  H           0     134.265 129.882 145.118  0.00  0.00     0.178 HD
ENDROOT
BRANCH  15  20
ATOM     20  O           0     133.412 134.604 144.737  0.00  0.00    -0.382 OA
ATOM     21  H           0     133.024 135.460 144.514  0.00  0.00     0.210 HD
ENDBRANCH  15  20
BRANCH  15  22
ATOM     22  C           0     134.916 135.810 143.271  0.00  0.00     0.207 C 
BRANCH  22  23
ATOM     23  O           0     134.105 135.908 142.099  0.00  0.00    -0.398 OA
ATOM     24  H           0     134.560 135.416 141.402  0.00  0.00     0.209 HD
ENDBRANCH  22  23
ENDBRANCH  15  22
BRANCH  17  25
ATOM     25  O           0     133.972 131.000 142.739  0.00  0.00    -0.390 OA
ATOM     26  H           0     134.332 130.201 143.149  0.00  0.00     0.210 HD
ENDBRANCH  17  25
BRANCH   6  27
ATOM     27  O           0     136.657 133.475 147.662  0.00  0.00    -0.376 OA
ATOM     28  H           0     135.804 133.931 147.694  0.00  0.00     0.212 HD
ENDBRANCH   6  27
BRANCH  13  29
ATOM     29  O           0     137.977 132.863 142.398  0.00  0.00    -0.341 OA
ATOM     30  H           0     138.098 131.931 142.173  0.00  0.00     0.215 HD
ENDBRANCH  13  29
BRANCH   9  31
ATOM     31  O           0     137.657 131.304 144.726  0.00  0.00    -0.385 OA
ATOM     32  H           0     138.061 130.486 144.407  0.00  0.00     0.210 HD
ENDBRANCH   9  31
TORSDOF 7
ENDMDL
MODEL 5
REMARK VINA RESULT:      -7.2      1.691      3.710
REMARK  7 active torsions:
REMARK  status: ('A' for Active; 'I' for Inactive)
REMARK    1  A    between atoms: C_6  and  O_7 
REMARK    2  A    between atoms: C_10  and  O_11 
REMARK    3  A    between atoms: C_15  and  O_16 
REMARK    4  A    between atoms: C_18  and  O_19 
REMARK    5  A    between atoms: C_18  and  C_20 
REMARK    6  A    between atoms: C_20  and  O_21 
REMARK    7  A    between atoms: C_23  and  O_24 
ROOT
ATOM      1  N           0     132.733 133.615 141.034  0.00  0.00    -0.235 N 
ATOM      2  H           0     132.231 134.418 140.822  0.00  0.00     0.174 HD
ATOM      3  H           0     132.372 132.743 140.810  0.00  0.00     0.174 HD
ATOM      4  C           0     133.895 133.709 141.618  0.00  0.00     0.670 C 
ATOM      5  N           0     134.446 134.937 141.949  0.00  0.00    -0.200 N 
ATOM      6  C           0     135.109 135.063 143.259  0.00  0.00     0.244 C 
ATOM      7  C           0     136.083 133.892 143.420  0.00  0.00     0.101 C 
ATOM      8  C           0     135.312 132.579 143.238  0.00  0.00     0.119 C 
ATOM      9  C           0     134.275 132.480 144.365  0.00  0.00     0.243 C 
ATOM     10  N           0     134.641 132.583 141.943  0.00  0.00    -0.211 N 
ATOM     11  C           0     136.715 133.912 144.811  0.00  0.00     0.177 C 
ATOM     12  O           0     135.728 133.760 145.825  0.00  0.00    -0.322 OA
ATOM     13  C           0     135.058 132.518 145.683  0.00  0.00     0.311 C 
ATOM     14  O           0     135.913 131.393 145.775  0.00  0.00    -0.319 OA
ATOM     15  C           0     137.711 132.748 144.914  0.00  0.00     0.134 C 
ATOM     16  C           0     136.910 131.441 144.759  0.00  0.00     0.198 C 
ATOM     17  C           0     136.276 131.401 143.373  0.00  0.00     0.182 C 
ATOM     18  H           0     134.397 135.688 141.339  0.00  0.00     0.180 HD
ATOM     19  H           0     134.716 131.834 141.331  0.00  0.00     0.178 HD
ENDROOT
BRANCH  15  20
ATOM     20  O           0     138.679 132.845 143.868  0.00  0.00    -0.382 OA
ATOM     21  H           0     138.269 132.481 143.072  0.00  0.00     0.210 HD
ENDBRANCH  15  20
BRANCH  15  22
ATOM     22  C           0     138.410 132.782 146.274  0.00  0.00     0.207 C 
BRANCH  22  23
ATOM     23  O           0     138.649 131.446 146.720  0.00  0.00    -0.398 OA
ATOM     24  H           0     138.749 131.485 147.681  0.00  0.00     0.209 HD
ENDBRANCH  22  23
ENDBRANCH  15  22
BRANCH  17  25
ATOM     25  O           0     135.561 130.175 143.209  0.00  0.00    -0.390 OA
ATOM     26  H           0     134.659 130.335 143.520  0.00  0.00     0.210 HD
ENDBRANCH  17  25
BRANCH   6  27
ATOM     27  O           0     135.826 136.298 143.319  0.00  0.00    -0.376 OA
ATOM     28  H           0     135.912 136.615 142.408  0.00  0.00     0.212 HD
ENDBRANCH   6  27
BRANCH  13  29
ATOM     29  O           0     134.115 132.409 146.751  0.00  0.00    -0.341 OA
ATOM     30  H           0     133.494 131.711 146.505  0.00  0.00     0.215 HD
ENDBRANCH  13  29
BRANCH   9  31
ATOM     31  O           0     133.372 133.586 144.298  0.00  0.00    -0.385 OA
ATOM     32  H           0     133.391 133.908 143.387  0.00  0.00     0.210 HD
ENDBRANCH   9  31
TORSDOF 7
ENDMDL
MODEL 6
REMARK VINA RESULT:      -6.9      2.232      4.081
REMARK  7 active torsions:
REMARK  status: ('A' for Active; 'I' for Inactive)
REMARK    1  A    between atoms: C_6  and  O_7 
REMARK    2  A    between atoms: C_10  and  O_11 
REMARK    3  A    between atoms: C_15  and  O_16 
REMARK    4  A    between atoms: C_18  and  O_19 
REMARK    5  A    between atoms: C_18  and  C_20 
REMARK    6  A    between atoms: C_20  and  O_21 
REMARK    7  A    between atoms: C_23  and  O_24 
ROOT
ATOM      1  N           0     132.983 132.105 141.887  0.00  0.00    -0.235 N 
ATOM      2  H           0     132.830 132.648 141.098  0.00  0.00     0.174 HD
ATOM      3  H           0     132.245 131.631 142.301  0.00  0.00     0.174 HD
ATOM      4  C           0     134.183 132.008 142.388  0.00  0.00     0.670 C 
ATOM      5  N           0     135.264 132.665 141.821  0.00  0.00    -0.200 N 
ATOM      6  C           0     136.227 133.314 142.727  0.00  0.00     0.244 C 
ATOM      7  C           0     136.624 132.307 143.811  0.00  0.00     0.101 C 
ATOM      8  C           0     135.353 131.806 144.510  0.00  0.00     0.119 C 
ATOM      9  C           0     134.695 133.005 145.207  0.00  0.00     0.243 C 
ATOM     10  N           0     134.442 131.244 143.520  0.00  0.00    -0.211 N 
ATOM     11  C           0     137.536 132.966 144.844  0.00  0.00     0.177 C 
ATOM     12  O           0     136.870 134.034 145.508  0.00  0.00    -0.322 OA
ATOM     13  C           0     135.728 133.554 146.198  0.00  0.00     0.311 C 
ATOM     14  O           0     136.023 132.581 147.185  0.00  0.00    -0.319 OA
ATOM     15  C           0     137.939 131.913 145.885  0.00  0.00     0.134 C 
ATOM     16  C           0     136.652 131.449 146.594  0.00  0.00     0.198 C 
ATOM     17  C           0     135.731 130.782 145.579  0.00  0.00     0.182 C 
ATOM     18  H           0     135.383 132.695 140.860  0.00  0.00     0.180 HD
ATOM     19  H           0     134.036 130.372 143.642  0.00  0.00     0.178 HD
ENDROOT
BRANCH  15  20
ATOM     20  O           0     138.558 130.801 145.235  0.00  0.00    -0.382 OA
ATOM     21  H           0     138.407 130.911 144.287  0.00  0.00     0.210 HD
ENDBRANCH  15  20
BRANCH  15  22
ATOM     22  C           0     138.908 132.528 146.897  0.00  0.00     0.207 C 
BRANCH  22  23
ATOM     23  O           0     138.642 131.994 148.195  0.00  0.00    -0.398 OA
ATOM     24  H           0     137.748 132.274 148.434  0.00  0.00     0.209 HD
ENDBRANCH  22  23
ENDBRANCH  15  22
BRANCH  17  25
ATOM     25  O           0     134.551 130.318 146.236  0.00  0.00    -0.390 OA
ATOM     26  H           0     133.860 130.260 145.561  0.00  0.00     0.210 HD
ENDBRANCH  17  25
BRANCH   6  27
ATOM     27  O           0     137.387 133.712 141.992  0.00  0.00    -0.376 OA
ATOM     28  H           0     138.075 133.057 142.181  0.00  0.00     0.212 HD
ENDBRANCH   6  27
BRANCH  13  29
ATOM     29  O           0     135.132 134.663 146.875  0.00  0.00    -0.341 OA
ATOM     30  H           0     135.857 135.188 147.241  0.00  0.00     0.215 HD
ENDBRANCH  13  29
BRANCH   9  31
ATOM     31  O           0     134.357 134.007 144.244  0.00  0.00    -0.385 OA
ATOM     32  H           0     135.083 134.039 143.607  0.00  0.00     0.210 HD
ENDBRANCH   9  31
TORSDOF 7
ENDMDL
MODEL 7
REMARK VINA RESULT:      -6.9      3.050      4.986
REMARK  7 active torsions:
REMARK  status: ('A' for Active; 'I' for Inactive)
REMARK    1  A    between atoms: C_6  and  O_7 
REMARK    2  A    between atoms: C_10  and  O_11 
REMARK    3  A    between atoms: C_15  and  O_16 
REMARK    4  A    between atoms: C_18  and  O_19 
REMARK    5  A    between atoms: C_18  and  C_20 
REMARK    6  A    between atoms: C_20  and  O_21 
REMARK    7  A    between atoms: C_23  and  O_24 
ROOT
ATOM      1  N           0     139.161 131.580 146.849  0.00  0.00    -0.235 N 
ATOM      2  H           0     139.975 131.112 146.605  0.00  0.00     0.174 HD
ATOM      3  H           0     138.750 131.420 147.713  0.00  0.00     0.174 HD
ATOM      4  C           0     138.621 132.427 146.018  0.00  0.00     0.670 C 
ATOM      5  N           0     139.182 132.686 144.777  0.00  0.00    -0.200 N 
ATOM      6  C           0     138.275 132.800 143.622  0.00  0.00     0.244 C 
ATOM      7  C           0     137.141 133.761 143.993  0.00  0.00     0.101 C 
ATOM      8  C           0     136.460 133.252 145.270  0.00  0.00     0.119 C 
ATOM      9  C           0     135.831 131.887 144.958  0.00  0.00     0.243 C 
ATOM     10  N           0     137.453 133.112 146.329  0.00  0.00    -0.211 N 
ATOM     11  C           0     136.109 133.827 142.869  0.00  0.00     0.177 C 
ATOM     12  O           0     135.507 132.556 142.650  0.00  0.00    -0.322 OA
ATOM     13  C           0     134.832 132.118 143.818  0.00  0.00     0.311 C 
ATOM     14  O           0     133.800 132.990 144.242  0.00  0.00    -0.319 OA
ATOM     15  C           0     135.015 134.828 143.266  0.00  0.00     0.134 C 
ATOM     16  C           0     134.326 134.281 144.531  0.00  0.00     0.198 C 
ATOM     17  C           0     135.340 134.213 145.667  0.00  0.00     0.182 C 
ATOM     18  H           0     140.140 132.790 144.673  0.00  0.00     0.180 HD
ATOM     19  H           0     137.308 133.485 147.213  0.00  0.00     0.178 HD
ENDROOT
BRANCH  15  20
ATOM     20  O           0     135.601 136.100 143.550  0.00  0.00    -0.382 OA
ATOM     21  H           0     136.459 135.927 143.961  0.00  0.00     0.210 HD
ENDBRANCH  15  20
BRANCH  15  22
ATOM     22  C           0     134.000 134.967 142.129  0.00  0.00     0.207 C 
BRANCH  22  23
ATOM     23  O           0     133.884 136.342 141.760  0.00  0.00    -0.398 OA
ATOM     24  H           0     134.697 136.575 141.291  0.00  0.00     0.209 HD
ENDBRANCH  22  23
ENDBRANCH  15  22
BRANCH  17  25
ATOM     25  O           0     134.700 133.740 146.853  0.00  0.00    -0.390 OA
ATOM     26  H           0     135.115 132.895 147.076  0.00  0.00     0.210 HD
ENDBRANCH  17  25
BRANCH   6  27
ATOM     27  O           0     138.990 133.313 142.496  0.00  0.00    -0.376 OA
ATOM     28  H           0     139.039 132.597 141.846  0.00  0.00     0.212 HD
ENDBRANCH   6  27
BRANCH  13  29
ATOM     29  O           0     134.217 130.863 143.519  0.00  0.00    -0.341 OA
ATOM     30  H           0     134.144 130.811 142.556  0.00  0.00     0.215 HD
ENDBRANCH  13  29
BRANCH   9  31
ATOM     31  O           0     136.842 130.964 144.546  0.00  0.00    -0.385 OA
ATOM     32  H           0     136.972 131.096 143.598  0.00  0.00     0.210 HD
ENDBRANCH   9  31
TORSDOF 7
ENDMDL
MODEL 8
REMARK VINA RESULT:      -6.8      2.807      4.765
REMARK  7 active torsions:
REMARK  status: ('A' for Active; 'I' for Inactive)
REMARK    1  A    between atoms: C_6  and  O_7 
REMARK    2  A    between atoms: C_10  and  O_11 
REMARK    3  A    between atoms: C_15  and  O_16 
REMARK    4  A    between atoms: C_18  and  O_19 
REMARK    5  A    between atoms: C_18  and  C_20 
REMARK    6  A    between atoms: C_20  and  O_21 
REMARK    7  A    between atoms: C_23  and  O_24 
ROOT
ATOM      1  N           0     138.200 132.145 147.121  0.00  0.00    -0.235 N 
ATOM      2  H           0     138.154 131.375 147.709  0.00  0.00     0.174 HD
ATOM      3  H           0     138.689 132.937 147.395  0.00  0.00     0.174 HD
ATOM      4  C           0     137.607 132.115 145.961  0.00  0.00     0.670 C 
ATOM      5  N           0     136.902 131.000 145.533  0.00  0.00    -0.200 N 
ATOM      6  C           0     135.614 131.220 144.853  0.00  0.00     0.244 C 
ATOM      7  C           0     135.819 132.271 143.758  0.00  0.00     0.101 C 
ATOM      8  C           0     136.410 133.536 144.392  0.00  0.00     0.119 C 
ATOM      9  C           0     135.379 134.092 145.384  0.00  0.00     0.243 C 
ATOM     10  N           0     137.644 133.200 145.093  0.00  0.00    -0.211 N 
ATOM     11  C           0     134.487 132.618 143.096  0.00  0.00     0.177 C 
ATOM     12  O           0     133.580 133.185 144.036  0.00  0.00    -0.322 OA
ATOM     13  C           0     134.110 134.384 144.576  0.00  0.00     0.311 C 
ATOM     14  O           0     134.368 135.383 143.606  0.00  0.00    -0.319 OA
ATOM     15  C           0     134.746 133.643 141.982  0.00  0.00     0.134 C 
ATOM     16  C           0     135.309 134.913 142.646  0.00  0.00     0.198 C 
ATOM     17  C           0     136.643 134.587 143.308  0.00  0.00     0.182 C 
ATOM     18  H           0     137.247 130.106 145.675  0.00  0.00     0.180 HD
ATOM     19  H           0     138.460 133.707 144.956  0.00  0.00     0.178 HD
ENDROOT
BRANCH  15  20
ATOM     20  O           0     135.701 133.121 141.056  0.00  0.00    -0.382 OA
ATOM     21  H           0     136.545 133.550 141.252  0.00  0.00     0.210 HD
ENDBRANCH  15  20
BRANCH  15  22
ATOM     22  C           0     133.437 133.961 141.255  0.00  0.00     0.207 C 
BRANCH  22  23
ATOM     23  O           0     133.464 135.314 140.800  0.00  0.00    -0.398 OA
ATOM     24  H           0     132.618 135.711 141.052  0.00  0.00     0.209 HD
ENDBRANCH  22  23
ENDBRANCH  15  22
BRANCH  17  25
ATOM     25  O           0     137.189 135.769 143.895  0.00  0.00    -0.390 OA
ATOM     26  H           0     137.499 136.325 143.167  0.00  0.00     0.210 HD
ENDBRANCH  17  25
BRANCH   6  27
ATOM     27  O           0     135.164 129.996 144.267  0.00  0.00    -0.376 OA
ATOM     28  H           0     134.529 129.607 144.885  0.00  0.00     0.212 HD
ENDBRANCH   6  27
BRANCH  13  29
ATOM     29  O           0     133.137 134.921 145.475  0.00  0.00    -0.341 OA
ATOM     30  H           0     132.408 134.288 145.508  0.00  0.00     0.215 HD
ENDBRANCH  13  29
BRANCH   9  31
ATOM     31  O           0     135.104 133.124 146.399  0.00  0.00    -0.385 OA
ATOM     32  H           0     135.938 132.675 146.591  0.00  0.00     0.210 HD
ENDBRANCH   9  31
TORSDOF 7
ENDMDL
MODEL 9
REMARK VINA RESULT:      -6.7      1.948      2.676
REMARK  7 active torsions:
REMARK  status: ('A' for Active; 'I' for Inactive)
REMARK    1  A    between atoms: C_6  and  O_7 
REMARK    2  A    between atoms: C_10  and  O_11 
REMARK    3  A    between atoms: C_15  and  O_16 
REMARK    4  A    between atoms: C_18  and  O_19 
REMARK    5  A    between atoms: C_18  and  C_20 
REMARK    6  A    between atoms: C_20  and  O_21 
REMARK    7  A    between atoms: C_23  and  O_24 
ROOT
ATOM      1  N           0     134.414 135.954 142.766  0.00  0.00    -0.235 N 
ATOM      2  H           0     134.134 135.952 141.837  0.00  0.00     0.174 HD
ATOM      3  H           0     134.736 136.773 143.174  0.00  0.00     0.174 HD
ATOM      4  C           0     134.356 134.856 143.465  0.00  0.00     0.670 C 
ATOM      5  N           0     133.898 133.668 142.918  0.00  0.00    -0.200 N 
ATOM      6  C           0     134.628 132.431 143.249  0.00  0.00     0.244 C 
ATOM      7  C           0     134.814 132.373 144.768  0.00  0.00     0.101 C 
ATOM      8  C           0     135.521 133.654 145.229  0.00  0.00     0.119 C 
ATOM      9  C           0     136.916 133.678 144.589  0.00  0.00     0.243 C 
ATOM     10  N           0     134.754 134.816 144.797  0.00  0.00    -0.211 N 
ATOM     11  C           0     135.665 131.164 145.154  0.00  0.00     0.177 C 
ATOM     12  O           0     136.969 131.255 144.590  0.00  0.00    -0.322 OA
ATOM     13  C           0     137.637 132.412 145.065  0.00  0.00     0.311 C 
ATOM     14  O           0     137.799 132.442 146.472  0.00  0.00    -0.319 OA
ATOM     15  C           0     135.792 131.124 146.684  0.00  0.00     0.134 C 
ATOM     16  C           0     136.531 132.403 147.119  0.00  0.00     0.198 C 
ATOM     17  C           0     135.693 133.621 146.747  0.00  0.00     0.182 C 
ATOM     18  H           0     133.122 133.650 142.338  0.00  0.00     0.180 HD
ATOM     19  H           0     134.526 135.531 145.411  0.00  0.00     0.178 HD
ENDROOT
BRANCH  15  20
ATOM     20  O           0     134.493 131.094 147.278  0.00  0.00    -0.382 OA
ATOM     21  H           0     134.021 130.348 146.882  0.00  0.00     0.210 HD
ENDBRANCH  15  20
BRANCH  15  22
ATOM     22  C           0     136.585 129.885 147.106  0.00  0.00     0.207 C 
BRANCH  22  23
ATOM     23  O           0     136.129 128.753 146.363  0.00  0.00    -0.398 OA
ATOM     24  H           0     135.244 128.970 146.039  0.00  0.00     0.209 HD
ENDBRANCH  22  23
ENDBRANCH  15  22
BRANCH  17  25
ATOM     25  O           0     136.356 134.810 147.179  0.00  0.00    -0.390 OA
ATOM     26  H           0     137.305 134.650 147.085  0.00  0.00     0.210 HD
ENDBRANCH  17  25
BRANCH   6  27
ATOM     27  O           0     133.875 131.297 142.812  0.00  0.00    -0.376 OA
ATOM     28  H           0     134.009 130.602 143.473  0.00  0.00     0.212 HD
ENDBRANCH   6  27
BRANCH  13  29
ATOM     29  O           0     138.948 132.419 144.497  0.00  0.00    -0.341 OA
ATOM     30  H           0     139.528 131.974 145.128  0.00  0.00     0.215 HD
ENDBRANCH  13  29
BRANCH   9  31
ATOM     31  O           0     136.802 133.673 143.164  0.00  0.00    -0.385 OA
ATOM     32  H           0     136.550 132.777 142.907  0.00  0.00     0.210 HD
ENDBRANCH   9  31
TORSDOF 7
ENDMDL
