MODEL 1
REMARK VINA RESULT:      -7.3      0.000      0.000
REMARK  4 active torsions:
REMARK  status: ('A' for Active; 'I' for Inactive)
REMARK    1  A    between atoms: C_6  and  C_7 
REMARK    2  A    between atoms: C_7  and  O_8 
REMARK    3  A    between atoms: C_20  and  O_21 
REMARK    4  A    between atoms: C_20  and  O_22 
ROOT
ATOM      1  N           0     135.927 134.702 146.891  0.00  0.00    -0.235 N 
ATOM      2  H           0     136.246 135.597 147.082  0.00  0.00     0.174 HD
ATOM      3  H           0     135.618 134.132 147.613  0.00  0.00     0.174 HD
ATOM      4  C           0     135.911 134.265 145.663  0.00  0.00     0.672 C 
ATOM      5  N           0     136.336 135.040 144.599  0.00  0.00    -0.218 N 
ATOM      6  C           0     136.878 134.365 143.423  0.00  0.00     0.150 C 
ATOM      7  C           0     135.966 133.270 142.906  0.00  0.00     0.180 C 
ATOM      8  N           0     134.842 133.882 142.166  0.00  0.00    -0.216 N 
ATOM      9  C           0     133.708 133.172 142.474  0.00  0.00     0.670 C 
ATOM     10  N           0     132.620 133.184 141.756  0.00  0.00    -0.235 N 
ATOM     11  H           0     132.578 133.716 140.947  0.00  0.00     0.174 HD
ATOM     12  H           0     131.852 132.657 142.030  0.00  0.00     0.174 HD
ATOM     13  C           0     135.286 132.459 143.998  0.00  0.00     0.217 C 
ATOM     14  N           0     133.861 132.450 143.631  0.00  0.00    -0.191 N 
ATOM     15  N           0     135.476 133.005 145.343  0.00  0.00    -0.183 N 
ATOM     16  C           0     135.159 131.895 146.262  0.00  0.00     0.150 C 
ATOM     17  C           0     135.739 130.642 145.564  0.00  0.00     0.093 C 
ATOM     18  C           0     135.820 131.019 144.062  0.00  0.00     0.209 C 
ATOM     19  H           0     136.275 136.008 144.634  0.00  0.00     0.178 HD
ATOM     20  H           0     134.896 134.646 141.572  0.00  0.00     0.178 HD
ATOM     21  H           0     133.151 132.007 144.121  0.00  0.00     0.180 HD
ENDROOT
BRANCH  18  22
ATOM     22  O           0     135.000 130.144 143.284  0.00  0.00    -0.362 OA
ATOM     23  H           0     134.800 129.379 143.842  0.00  0.00     0.213 HD
ENDBRANCH  18  22
BRANCH  18  24
ATOM     24  O           0     137.173 130.970 143.608  0.00  0.00    -0.362 OA
ATOM     25  H           0     137.725 130.818 144.389  0.00  0.00     0.213 HD
ENDBRANCH  18  24
BRANCH   6  26
ATOM     26  C           0     138.230 133.749 143.787  0.00  0.00     0.192 C 
BRANCH  26  27
ATOM     27  O           0     138.738 133.017 142.669  0.00  0.00    -0.399 OA
ATOM     28  H           0     138.656 133.593 141.898  0.00  0.00     0.209 HD
ENDBRANCH  26  27
ENDBRANCH   6  26
TORSDOF 4
ENDMDL
MODEL 2
REMARK VINA RESULT:      -7.0      1.717      2.464
REMARK  4 active torsions:
REMARK  status: ('A' for Active; 'I' for Inactive)
REMARK    1  A    between atoms: C_6  and  C_7 
REMARK    2  A    between atoms: C_7  and  O_8 
REMARK    3  A    between atoms: C_20  and  O_21 
REMARK    4  A    between atoms: C_20  and  O_22 
ROOT
ATOM      1  N           0     134.922 132.004 146.734  0.00  0.00    -0.235 N 
ATOM      2  H           0     135.191 132.090 147.661  0.00  0.00     0.174 HD
ATOM      3  H           0     134.238 131.363 146.484  0.00  0.00     0.174 HD
ATOM      4  C           0     135.477 132.753 145.823  0.00  0.00     0.672 C 
ATOM      5  N           0     136.453 133.685 146.129  0.00  0.00    -0.218 N 
ATOM      6  C           0     137.439 134.018 145.105  0.00  0.00     0.150 C 
ATOM      7  C           0     136.802 134.383 143.778  0.00  0.00     0.180 C 
ATOM      8  N           0     136.267 135.758 143.858  0.00  0.00    -0.216 N 
ATOM      9  C           0     135.066 135.774 143.193  0.00  0.00     0.670 C 
ATOM     10  N           0     134.489 136.856 142.749  0.00  0.00    -0.235 N 
ATOM     11  H           0     134.911 137.720 142.880  0.00  0.00     0.174 HD
ATOM     12  H           0     133.639 136.797 142.285  0.00  0.00     0.174 HD
ATOM     13  C           0     135.590 133.539 143.417  0.00  0.00     0.217 C 
ATOM     14  N           0     134.546 134.511 143.055  0.00  0.00    -0.191 N 
ATOM     15  N           0     135.137 132.663 144.498  0.00  0.00    -0.183 N 
ATOM     16  C           0     134.293 131.644 143.847  0.00  0.00     0.150 C 
ATOM     17  C           0     135.015 131.346 142.511  0.00  0.00     0.093 C 
ATOM     18  C           0     135.873 132.607 142.227  0.00  0.00     0.209 C 
ATOM     19  H           0     136.480 134.106 147.002  0.00  0.00     0.178 HD
ATOM     20  H           0     136.687 136.512 144.300  0.00  0.00     0.178 HD
ATOM     21  H           0     133.646 134.297 142.764  0.00  0.00     0.180 HD
ENDROOT
BRANCH  18  22
ATOM     22  O           0     135.468 133.219 141.001  0.00  0.00    -0.362 OA
ATOM     23  H           0     135.787 132.651 140.286  0.00  0.00     0.213 HD
ENDBRANCH  18  22
BRANCH  18  24
ATOM     24  O           0     137.259 132.265 142.181  0.00  0.00    -0.362 OA
ATOM     25  H           0     137.459 132.033 141.263  0.00  0.00     0.213 HD
ENDBRANCH  18  24
BRANCH   6  26
ATOM     26  C           0     138.358 132.813 144.895  0.00  0.00     0.192 C 
BRANCH  26  27
ATOM     27  O           0     139.255 133.079 143.814  0.00  0.00    -0.399 OA
ATOM     28  H           0     139.638 133.951 143.977  0.00  0.00     0.209 HD
ENDBRANCH  26  27
ENDBRANCH   6  26
TORSDOF 4
ENDMDL
MODEL 3
REMARK VINA RESULT:      -6.3      1.915      2.191
REMARK  4 active torsions:
REMARK  status: ('A' for Active; 'I' for Inactive)
REMARK    1  A    between atoms: C_6  and  C_7 
REMARK    2  A    between atoms: C_7  and  O_8 
REMARK    3  A    between atoms: C_20  and  O_21 
REMARK    4  A    between atoms: C_20  and  O_22 
ROOT
ATOM      1  N           0     135.927 134.755 147.588  0.00  0.00    -0.235 N 
ATOM      2  H           0     136.318 135.640 147.521  0.00  0.00     0.174 HD
ATOM      3  H           0     135.356 134.533 148.340  0.00  0.00     0.174 HD
ATOM      4  C           0     136.166 133.866 146.666  0.00  0.00     0.672 C 
ATOM      5  N           0     136.968 134.136 145.571  0.00  0.00    -0.218 N 
ATOM      6  C           0     137.690 133.028 144.951  0.00  0.00     0.150 C 
ATOM      7  C           0     136.789 131.853 144.628  0.00  0.00     0.180 C 
ATOM      8  N           0     136.005 132.161 143.413  0.00  0.00    -0.216 N 
ATOM      9  C           0     134.735 131.676 143.605  0.00  0.00     0.670 C 
ATOM     10  N           0     133.888 131.441 142.642  0.00  0.00    -0.235 N 
ATOM     11  H           0     134.141 131.608 141.721  0.00  0.00     0.174 HD
ATOM     12  H           0     133.004 131.096 142.847  0.00  0.00     0.174 HD
ATOM     13  C           0     135.731 131.571 145.683  0.00  0.00     0.217 C 
ATOM     14  N           0     134.467 131.470 144.935  0.00  0.00    -0.191 N 
ATOM     15  N           0     135.643 132.600 146.721  0.00  0.00    -0.183 N 
ATOM     16  C           0     134.931 131.962 147.843  0.00  0.00     0.150 C 
ATOM     17  C           0     135.474 130.514 147.868  0.00  0.00     0.093 C 
ATOM     18  C           0     136.002 130.257 146.433  0.00  0.00     0.209 C 
ATOM     19  H           0     137.049 135.039 145.226  0.00  0.00     0.178 HD
ATOM     20  H           0     136.329 132.622 142.624  0.00  0.00     0.178 HD
ATOM     21  H           0     133.595 131.285 145.316  0.00  0.00     0.180 HD
ENDROOT
BRANCH  18  22
ATOM     22  O           0     135.291 129.176 145.827  0.00  0.00    -0.362 OA
ATOM     23  H           0     134.802 129.547 145.080  0.00  0.00     0.213 HD
ENDBRANCH  18  22
BRANCH  18  24
ATOM     24  O           0     137.403 129.980 146.460  0.00  0.00    -0.362 OA
ATOM     25  H           0     137.771 130.473 147.207  0.00  0.00     0.213 HD
ENDBRANCH  18  24
BRANCH   6  26
ATOM     26  C           0     138.788 132.558 145.907  0.00  0.00     0.192 C 
BRANCH  26  27
ATOM     27  O           0     139.452 131.422 145.349  0.00  0.00    -0.399 OA
ATOM     28  H           0     139.487 131.560 144.394  0.00  0.00     0.209 HD
ENDBRANCH  26  27
ENDBRANCH   6  26
TORSDOF 4
ENDMDL
MODEL 4
REMARK VINA RESULT:      -6.2      2.446      3.809
REMARK  4 active torsions:
REMARK  status: ('A' for Active; 'I' for Inactive)
REMARK    1  A    between atoms: C_6  and  C_7 
REMARK    2  A    between atoms: C_7  and  O_8 
REMARK    3  A    between atoms: C_20  and  O_21 
REMARK    4  A    between atoms: C_20  and  O_22 
ROOT
ATOM      1  N           0     138.769 130.726 145.616  0.00  0.00    -0.235 N 
ATOM      2  H           0     138.855 130.090 146.343  0.00  0.00     0.174 HD
ATOM      3  H           0     139.526 130.905 145.036  0.00  0.00     0.174 HD
ATOM      4  C           0     137.636 131.337 145.415  0.00  0.00     0.672 C 
ATOM      5  N           0     136.526 131.113 146.210  0.00  0.00    -0.218 N 
ATOM      6  C           0     135.555 132.192 146.365  0.00  0.00     0.150 C 
ATOM      7  C           0     135.105 132.767 145.036  0.00  0.00     0.180 C 
ATOM      8  N           0     134.137 131.844 144.409  0.00  0.00    -0.216 N 
ATOM      9  C           0     134.403 131.816 143.062  0.00  0.00     0.670 C 
ATOM     10  N           0     133.556 131.412 142.157  0.00  0.00    -0.235 N 
ATOM     11  H           0     132.674 131.107 142.419  0.00  0.00     0.174 HD
ATOM     12  H           0     133.808 131.418 141.220  0.00  0.00     0.174 HD
ATOM     13  C           0     136.215 132.890 144.004  0.00  0.00     0.217 C 
ATOM     14  N           0     135.671 132.263 142.787  0.00  0.00    -0.191 N 
ATOM     15  N           0     137.468 132.249 144.405  0.00  0.00    -0.183 N 
ATOM     16  C           0     138.503 132.839 143.536  0.00  0.00     0.150 C 
ATOM     17  C           0     138.097 134.326 143.411  0.00  0.00     0.093 C 
ATOM     18  C           0     136.578 134.356 143.720  0.00  0.00     0.209 C 
ATOM     19  H           0     136.397 130.260 146.654  0.00  0.00     0.178 HD
ATOM     20  H           0     133.439 131.348 144.866  0.00  0.00     0.178 HD
ATOM     21  H           0     136.128 132.184 141.936  0.00  0.00     0.180 HD
ENDROOT
BRANCH  18  22
ATOM     22  O           0     135.850 134.845 142.591  0.00  0.00    -0.362 OA
ATOM     23  H           0     135.603 135.759 142.792  0.00  0.00     0.213 HD
ENDBRANCH  18  22
BRANCH  18  24
ATOM     24  O           0     136.319 135.164 144.869  0.00  0.00    -0.362 OA
ATOM     25  H           0     137.060 135.781 144.950  0.00  0.00     0.213 HD
ENDBRANCH  18  24
BRANCH   6  26
ATOM     26  C           0     136.187 133.310 147.196  0.00  0.00     0.192 C 
BRANCH  26  27
ATOM     27  O           0     135.567 133.356 148.483  0.00  0.00    -0.399 OA
ATOM     28  H           0     136.233 133.681 149.103  0.00  0.00     0.209 HD
ENDBRANCH  26  27
ENDBRANCH   6  26
TORSDOF 4
ENDMDL
MODEL 5
REMARK VINA RESULT:      -6.2      8.453     10.780
REMARK  4 active torsions:
REMARK  status: ('A' for Active; 'I' for Inactive)
REMARK    1  A    between atoms: C_6  and  C_7 
REMARK    2  A    between atoms: C_7  and  O_8 
REMARK    3  A    between atoms: C_20  and  O_21 
REMARK    4  A    between atoms: C_20  and  O_22 
ROOT
ATOM      1  N           0     132.280 137.371 132.460  0.00  0.00    -0.235 N 
ATOM      2  H           0     131.526 137.971 132.354  0.00  0.00     0.174 HD
ATOM      3  H           0     133.037 137.432 131.857  0.00  0.00     0.174 HD
ATOM      4  C           0     132.278 136.485 133.416  0.00  0.00     0.672 C 
ATOM      5  N           0     131.225 136.362 134.305  0.00  0.00    -0.218 N 
ATOM      6  C           0     130.971 135.053 134.901  0.00  0.00     0.150 C 
ATOM      7  C           0     132.213 134.441 135.516  0.00  0.00     0.180 C 
ATOM      8  N           0     132.487 135.095 136.813  0.00  0.00    -0.216 N 
ATOM      9  C           0     133.846 135.258 136.916  0.00  0.00     0.670 C 
ATOM     10  N           0     134.476 135.459 138.040  0.00  0.00    -0.235 N 
ATOM     11  H           0     133.982 135.500 138.873  0.00  0.00     0.174 HD
ATOM     12  H           0     135.441 135.566 138.042  0.00  0.00     0.174 HD
ATOM     13  C           0     133.484 134.673 134.714  0.00  0.00     0.217 C 
ATOM     14  N           0     134.460 135.185 135.690  0.00  0.00    -0.191 N 
ATOM     15  N           0     133.317 135.610 133.602  0.00  0.00    -0.183 N 
ATOM     16  C           0     134.466 135.366 132.710  0.00  0.00     0.150 C 
ATOM     17  C           0     134.660 133.831 132.748  0.00  0.00     0.093 C 
ATOM     18  C           0     134.010 133.375 134.079  0.00  0.00     0.209 C 
ATOM     19  H           0     130.670 137.126 134.526  0.00  0.00     0.178 HD
ATOM     20  H           0     131.827 135.361 137.471  0.00  0.00     0.178 HD
ATOM     21  H           0     135.380 135.425 135.501  0.00  0.00     0.180 HD
ENDROOT
BRANCH  18  22
ATOM     22  O           0     134.984 132.761 134.925  0.00  0.00    -0.362 OA
ATOM     23  H           0     135.604 132.296 134.345  0.00  0.00     0.213 HD
ENDBRANCH  18  22
BRANCH  18  24
ATOM     24  O           0     132.931 132.475 133.824  0.00  0.00    -0.362 OA
ATOM     25  H           0     133.326 131.634 133.555  0.00  0.00     0.213 HD
ENDBRANCH  18  24
BRANCH   6  26
ATOM     26  C           0     130.442 134.112 133.817  0.00  0.00     0.192 C 
BRANCH  26  27
ATOM     27  O           0     130.169 132.831 134.389  0.00  0.00    -0.399 OA
ATOM     28  H           0     129.222 132.672 134.281  0.00  0.00     0.209 HD
ENDBRANCH  26  27
ENDBRANCH   6  26
TORSDOF 4
ENDMDL
MODEL 6
REMARK VINA RESULT:      -6.1      2.827      4.390
REMARK  4 active torsions:
REMARK  status: ('A' for Active; 'I' for Inactive)
REMARK    1  A    between atoms: C_6  and  C_7 
REMARK    2  A    between atoms: C_7  and  O_8 
REMARK    3  A    between atoms: C_20  and  O_21 
REMARK    4  A    between atoms: C_20  and  O_22 
ROOT
ATOM      1  N           0     135.148 130.548 143.294  0.00  0.00    -0.235 N 
ATOM      2  H           0     134.993 130.397 142.349  0.00  0.00     0.174 HD
ATOM      3  H           0     134.682 130.013 143.955  0.00  0.00     0.174 HD
ATOM      4  C           0     135.986 131.470 143.677  0.00  0.00     0.672 C 
ATOM      5  N           0     136.680 132.257 142.774  0.00  0.00    -0.218 N 
ATOM      6  C           0     137.078 133.599 143.188  0.00  0.00     0.150 C 
ATOM      7  C           0     137.807 133.609 144.516  0.00  0.00     0.180 C 
ATOM      8  N           0     139.196 133.146 144.312  0.00  0.00    -0.216 N 
ATOM      9  C           0     139.529 132.348 145.379  0.00  0.00     0.670 C 
ATOM     10  N           0     140.752 132.062 145.726  0.00  0.00    -0.235 N 
ATOM     11  H           0     141.497 132.421 145.219  0.00  0.00     0.174 HD
ATOM     12  H           0     140.918 131.491 146.493  0.00  0.00     0.174 HD
ATOM     13  C           0     137.245 132.636 145.542  0.00  0.00     0.217 C 
ATOM     14  N           0     138.414 131.888 146.034  0.00  0.00    -0.191 N 
ATOM     15  N           0     136.233 131.727 145.000  0.00  0.00    -0.183 N 
ATOM     16  C           0     135.511 131.205 146.175  0.00  0.00     0.150 C 
ATOM     17  C           0     135.405 132.417 147.130  0.00  0.00     0.093 C 
ATOM     18  C           0     136.559 133.363 146.709  0.00  0.00     0.209 C 
ATOM     19  H           0     136.896 131.924 141.889  0.00  0.00     0.178 HD
ATOM     20  H           0     139.769 133.366 143.561  0.00  0.00     0.178 HD
ATOM     21  H           0     138.399 131.192 146.709  0.00  0.00     0.180 HD
ENDROOT
BRANCH  18  22
ATOM     22  O           0     137.472 133.548 147.793  0.00  0.00    -0.362 OA
ATOM     23  H           0     137.098 133.087 148.556  0.00  0.00     0.213 HD
ENDBRANCH  18  22
BRANCH  18  24
ATOM     24  O           0     136.039 134.620 146.274  0.00  0.00    -0.362 OA
ATOM     25  H           0     135.085 134.503 146.156  0.00  0.00     0.213 HD
ENDBRANCH  18  24
BRANCH   6  26
ATOM     26  C           0     135.826 134.470 143.307  0.00  0.00     0.192 C 
BRANCH  26  27
ATOM     27  O           0     136.206 135.811 143.627  0.00  0.00    -0.399 OA
ATOM     28  H           0     135.389 136.312 143.748  0.00  0.00     0.209 HD
ENDBRANCH  26  27
ENDBRANCH   6  26
TORSDOF 4
ENDMDL
MODEL 7
REMARK VINA RESULT:      -6.0      9.502     11.098
REMARK  4 active torsions:
REMARK  status: ('A' for Active; 'I' for Inactive)
REMARK    1  A    between atoms: C_6  and  C_7 
REMARK    2  A    between atoms: C_7  and  O_8 
REMARK    3  A    between atoms: C_20  and  O_21 
REMARK    4  A    between atoms: C_20  and  O_22 
ROOT
ATOM      1  N           0     134.470 132.847 132.644  0.00  0.00    -0.235 N 
ATOM      2  H           0     134.509 132.092 132.036  0.00  0.00     0.174 HD
ATOM      3  H           0     135.282 133.321 132.881  0.00  0.00     0.174 HD
ATOM      4  C           0     133.326 133.225 133.139  0.00  0.00     0.672 C 
ATOM      5  N           0     132.139 132.585 132.827  0.00  0.00    -0.218 N 
ATOM      6  C           0     131.061 132.606 133.812  0.00  0.00     0.150 C 
ATOM      7  C           0     130.754 134.004 134.311  0.00  0.00     0.180 C 
ATOM      8  N           0     129.973 134.726 133.285  0.00  0.00    -0.216 N 
ATOM      9  C           0     130.429 136.021 133.251  0.00  0.00     0.670 C 
ATOM     10  N           0     129.760 137.020 132.748  0.00  0.00    -0.235 N 
ATOM     11  H           0     128.881 136.872 132.366  0.00  0.00     0.174 HD
ATOM     12  H           0     130.141 137.912 132.757  0.00  0.00     0.174 HD
ATOM     13  C           0     131.983 134.876 134.515  0.00  0.00     0.217 C 
ATOM     14  N           0     131.677 136.132 133.812  0.00  0.00    -0.191 N 
ATOM     15  N           0     133.220 134.281 134.007  0.00  0.00    -0.183 N 
ATOM     16  C           0     134.309 135.018 134.673  0.00  0.00     0.150 C 
ATOM     17  C           0     133.790 135.252 136.112  0.00  0.00     0.093 C 
ATOM     18  C           0     132.246 135.159 136.003  0.00  0.00     0.209 C 
ATOM     19  H           0     132.028 132.133 131.976  0.00  0.00     0.178 HD
ATOM     20  H           0     129.266 134.353 132.735  0.00  0.00     0.178 HD
ATOM     21  H           0     132.255 136.908 133.758  0.00  0.00     0.180 HD
ENDROOT
BRANCH  18  22
ATOM     22  O           0     131.644 136.395 136.394  0.00  0.00    -0.362 OA
ATOM     23  H           0     132.036 136.639 137.245  0.00  0.00     0.213 HD
ENDBRANCH  18  22
BRANCH  18  24
ATOM     24  O           0     131.754 134.087 136.808  0.00  0.00    -0.362 OA
ATOM     25  H           0     131.586 133.343 136.211  0.00  0.00     0.213 HD
ENDBRANCH  18  24
BRANCH   6  26
ATOM     26  C           0     131.464 131.735 135.003  0.00  0.00     0.192 C 
BRANCH  26  27
ATOM     27  O           0     130.343 131.572 135.876  0.00  0.00    -0.399 OA
ATOM     28  H           0     130.691 131.262 136.722  0.00  0.00     0.209 HD
ENDBRANCH  26  27
ENDBRANCH   6  26
TORSDOF 4
ENDMDL
MODEL 8
REMARK VINA RESULT:      -5.8      9.577     11.388
REMARK  4 active torsions:
REMARK  status: ('A' for Active; 'I' for Inactive)
REMARK    1  A    between atoms: C_6  and  C_7 
REMARK    2  A    between atoms: C_7  and  O_8 
REMARK    3  A    between atoms: C_20  and  O_21 
REMARK    4  A    between atoms: C_20  and  O_22 
ROOT
ATOM      1  N           0     130.313 133.327 131.200  0.00  0.00    -0.235 N 
ATOM      2  H           0     129.470 132.878 131.033  0.00  0.00     0.174 HD
ATOM      3  H           0     130.791 133.750 130.470  0.00  0.00     0.174 HD
ATOM      4  C           0     130.803 133.364 132.407  0.00  0.00     0.672 C 
ATOM      5  N           0     130.158 132.781 133.484  0.00  0.00    -0.218 N 
ATOM      6  C           0     130.967 132.307 134.603  0.00  0.00     0.150 C 
ATOM      7  C           0     131.930 133.360 135.114  0.00  0.00     0.180 C 
ATOM      8  N           0     131.188 134.342 135.930  0.00  0.00    -0.216 N 
ATOM      9  C           0     131.696 135.586 135.645  0.00  0.00     0.670 C 
ATOM     10  N           0     131.550 136.630 136.413  0.00  0.00    -0.235 N 
ATOM     11  H           0     131.058 136.555 137.245  0.00  0.00     0.174 HD
ATOM     12  H           0     131.936 137.481 136.152  0.00  0.00     0.174 HD
ATOM     13  C           0     132.569 134.201 134.020  0.00  0.00     0.217 C 
ATOM     14  N           0     132.374 135.595 134.452  0.00  0.00    -0.191 N 
ATOM     15  N           0     131.994 133.980 132.693  0.00  0.00    -0.183 N 
ATOM     16  C           0     132.993 134.504 131.743  0.00  0.00     0.150 C 
ATOM     17  C           0     134.354 134.104 132.358  0.00  0.00     0.093 C 
ATOM     18  C           0     134.071 133.906 133.870  0.00  0.00     0.209 C 
ATOM     19  H           0     129.192 132.689 133.493  0.00  0.00     0.178 HD
ATOM     20  H           0     130.472 134.146 136.554  0.00  0.00     0.178 HD
ATOM     21  H           0     132.676 136.385 133.977  0.00  0.00     0.180 HD
ENDROOT
BRANCH  18  22
ATOM     22  O           0     134.844 134.823 134.646  0.00  0.00    -0.362 OA
ATOM     23  H           0     134.523 134.759 135.556  0.00  0.00     0.213 HD
ENDBRANCH  18  22
BRANCH  18  24
ATOM     24  O           0     134.353 132.560 134.257  0.00  0.00    -0.362 OA
ATOM     25  H           0     133.549 132.212 134.668  0.00  0.00     0.213 HD
ENDBRANCH  18  24
BRANCH   6  26
ATOM     26  C           0     131.769 131.085 134.150  0.00  0.00     0.192 C 
BRANCH  26  27
ATOM     27  O           0     132.538 130.585 135.246  0.00  0.00    -0.399 OA
ATOM     28  H           0     131.927 130.107 135.821  0.00  0.00     0.209 HD
ENDBRANCH  26  27
ENDBRANCH   6  26
TORSDOF 4
ENDMDL
MODEL 9
REMARK VINA RESULT:      -5.8      2.400      3.405
REMARK  4 active torsions:
REMARK  status: ('A' for Active; 'I' for Inactive)
REMARK    1  A    between atoms: C_6  and  C_7 
REMARK    2  A    between atoms: C_7  and  O_8 
REMARK    3  A    between atoms: C_20  and  O_21 
REMARK    4  A    between atoms: C_20  and  O_22 
ROOT
ATOM      1  N           0     136.247 135.153 147.913  0.00  0.00    -0.235 N 
ATOM      2  H           0     135.642 135.906 147.831  0.00  0.00     0.174 HD
ATOM      3  H           0     136.823 135.076 148.691  0.00  0.00     0.174 HD
ATOM      4  C           0     136.285 134.243 146.981  0.00  0.00     0.672 C 
ATOM      5  N           0     135.481 134.305 145.856  0.00  0.00    -0.218 N 
ATOM      6  C           0     135.964 133.686 144.625  0.00  0.00     0.150 C 
ATOM      7  C           0     136.419 132.255 144.831  0.00  0.00     0.180 C 
ATOM      8  N           0     135.234 131.378 144.932  0.00  0.00    -0.216 N 
ATOM      9  C           0     135.491 130.444 145.906  0.00  0.00     0.670 C 
ATOM     10  N           0     134.851 129.314 146.023  0.00  0.00    -0.235 N 
ATOM     11  H           0     134.145 129.088 145.398  0.00  0.00     0.174 HD
ATOM     12  H           0     135.084 128.698 146.736  0.00  0.00     0.174 HD
ATOM     13  C           0     137.160 132.020 146.137  0.00  0.00     0.217 C 
ATOM     14  N           0     136.502 130.849 146.741  0.00  0.00    -0.191 N 
ATOM     15  N           0     137.129 133.164 147.049  0.00  0.00    -0.183 N 
ATOM     16  C           0     138.227 132.932 148.004  0.00  0.00     0.150 C 
ATOM     17  C           0     139.362 132.328 147.144  0.00  0.00     0.093 C 
ATOM     18  C           0     138.651 131.721 145.907  0.00  0.00     0.209 C 
ATOM     19  H           0     134.620 134.750 145.886  0.00  0.00     0.178 HD
ATOM     20  H           0     134.422 131.448 144.406  0.00  0.00     0.178 HD
ATOM     21  H           0     136.744 130.432 147.582  0.00  0.00     0.180 HD
ENDROOT
BRANCH  18  22
ATOM     22  O           0     138.878 130.312 145.844  0.00  0.00    -0.362 OA
ATOM     23  H           0     138.904 130.075 144.907  0.00  0.00     0.213 HD
ENDBRANCH  18  22
BRANCH  18  24
ATOM     24  O           0     139.105 132.355 144.711  0.00  0.00    -0.362 OA
ATOM     25  H           0     138.745 133.253 144.715  0.00  0.00     0.213 HD
ENDBRANCH  18  24
BRANCH   6  26
ATOM     26  C           0     137.140 134.505 144.089  0.00  0.00     0.192 C 
BRANCH  26  27
ATOM     27  O           0     136.673 135.784 143.655  0.00  0.00    -0.399 OA
ATOM     28  H           0     136.386 136.260 144.446  0.00  0.00     0.209 HD
ENDBRANCH  26  27
ENDBRANCH   6  26
TORSDOF 4
ENDMDL
