# created with PyMOL 2.3.4
@<TRIPOS>MOLECULE
ligand_out_0001
28 30 1                 
SMALL
USER_CHARGES
@<TRIPOS>ATOM
1	   N	135.927	134.702	146.891	N.3	1	UNK0	-0.235	
2	   N	136.336	135.040	144.599	N.3	1	UNK0	-0.218	
3	   N	134.842	133.882	142.166	N.3	1	UNK0	-0.216	
4	   N	132.620	133.184	141.756	N.3	1	UNK0	-0.235	
5	   N	133.861	132.450	143.631	N.3	1	UNK0	-0.191	
6	   N	135.476	133.005	145.343	N.3	1	UNK0	-0.183	
7	   C	135.911	134.265	145.663	C.3	1	UNK0	0.672	
8	   C	136.878	134.365	143.423	C.3	1	UNK0	0.150	
9	   C	135.966	133.270	142.906	C.3	1	UNK0	0.180	
10	   C	133.708	133.172	142.474	C.3	1	UNK0	0.670	
11	   C	135.286	132.459	143.998	C.3	1	UNK0	0.217	
12	   C	135.159	131.895	146.262	C.3	1	UNK0	0.150	
13	   C	135.739	130.642	145.564	C.3	1	UNK0	0.093	
14	   C	135.820	131.019	144.062	C.3	1	UNK0	0.209	
15	   C	138.230	133.749	143.787	C.2	1	UNK0	0.192	
16	   O	135.000	130.144	143.284	O.2	1	UNK0	-0.362	
17	   O	137.173	130.970	143.608	O.2	1	UNK0	-0.362	
18	   O	138.738	133.017	142.669	O.2	1	UNK0	-0.399	
19	   H	136.246	135.597	147.082	 H	1	UNK0	0.174	
20	   H	135.618	134.132	147.613	 H	1	UNK0	0.174	
21	   H	132.578	133.716	140.947	 H	1	UNK0	0.174	
22	   H	131.852	132.657	142.030	 H	1	UNK0	0.174	
23	   H	136.275	136.008	144.634	 H	1	UNK0	0.178	
24	   H	134.896	134.646	141.572	 H	1	UNK0	0.178	
25	   H	133.151	132.007	144.121	 H	1	UNK0	0.180	
26	   H	134.800	129.379	143.842	 H	1	UNK0	0.213	
27	   H	137.725	130.818	144.389	 H	1	UNK0	0.213	
28	   H	138.656	133.593	141.898	 H	1	UNK0	0.209	
@<TRIPOS>BOND
1 1 7 1
2 1 19 1
3 1 20 1
4 2 8 1
5 2 23 1
6 3 10 1
7 3 24 1
8 4 21 1
9 4 22 1
10 5 25 1
11 6 12 1
12 2 7 1
13 6 7 1
14 8 9 1
15 8 15 1
16 3 9 1
17 9 11 1
18 4 10 1
19 5 10 1
20 5 11 1
21 6 11 1
22 11 14 1
23 12 13 1
24 13 14 1
25 14 16 2
26 14 17 2
27 15 18 2
28 16 26 1
29 17 27 1
30 18 28 1
@<TRIPOS>SUBSTRUCTURE
1	UNK0	1	GROUP	1 ****	UNK
