# created with PyMOL 2.3.4
@<TRIPOS>MOLECULE
ligand_out_0001
32 34 1                 
SMALL
USER_CHARGES
@<TRIPOS>ATOM
1	   N	135.047	136.779	143.153	N.3	1	UNK0	-0.235	
2	   N	133.792	134.794	143.019	N.3	1	UNK0	-0.218	
3	   N	134.092	132.192	144.640	N.3	1	UNK0	-0.216	
4	   N	134.857	131.664	146.816	N.3	1	UNK0	-0.235	
5	   N	136.096	133.016	145.323	N.3	1	UNK0	-0.191	
6	   N	136.049	134.711	143.598	N.3	1	UNK0	-0.183	
7	   N	133.536	136.059	139.855	N.pl3	1	UNK0	-0.346	
8	   C	134.969	135.482	143.255	C.3	1	UNK0	0.672	
9	   C	133.879	133.418	142.540	C.3	1	UNK0	0.151	
10	   C	134.794	132.559	143.392	C.3	1	UNK0	0.180	
11	   C	135.006	132.254	145.664	C.3	1	UNK0	0.670	
12	   C	136.046	133.274	143.874	C.3	1	UNK0	0.217	
13	   C	137.459	135.127	143.710	C.3	1	UNK0	0.150	
14	   C	138.255	133.954	143.089	C.3	1	UNK0	0.093	
15	   C	137.316	132.726	143.201	C.3	1	UNK0	0.209	
16	   C	134.408	133.427	141.105	C.2	1	UNK0	0.208	
17	   C	133.451	134.809	139.358	C.2	1	UNK0	0.358	
18	   O	133.329	133.759	140.193	O.2	1	UNK0	-0.302	
19	   O	133.485	134.629	138.157	O.co2	1	UNK0	-0.239	
20	   O	137.916	131.712	144.010	O.2	1	UNK0	-0.362	
21	   O	137.009	132.213	141.903	O.2	1	UNK0	-0.362	
22	   H	134.264	137.295	142.904	 H	1	UNK0	0.174	
23	   H	135.889	137.230	143.329	 H	1	UNK0	0.174	
24	   H	134.060	131.140	146.992	 H	1	UNK0	0.174	
25	   H	135.542	131.749	147.497	 H	1	UNK0	0.174	
26	   H	132.931	135.215	143.169	 H	1	UNK0	0.178	
27	   H	133.156	131.949	144.722	 H	1	UNK0	0.178	
28	   H	136.783	133.328	145.932	 H	1	UNK0	0.180	
29	   H	133.509	136.203	140.814	 H	1	UNK0	0.161	
30	   H	133.623	136.815	139.254	 H	1	UNK0	0.161	
31	   H	137.765	130.870	143.560	 H	1	UNK0	0.213	
32	   H	137.852	132.003	141.479	 H	1	UNK0	0.213	
@<TRIPOS>BOND
1 1 8 1
2 1 22 1
3 1 23 1
4 2 9 1
5 2 26 1
6 3 11 1
7 3 27 1
8 4 24 1
9 4 25 1
10 5 28 1
11 6 13 1
12 7 29 1
13 7 30 1
14 2 8 1
15 6 8 1
16 9 10 1
17 9 16 1
18 3 10 1
19 10 12 1
20 4 11 1
21 5 11 1
22 5 12 1
23 6 12 1
24 12 15 1
25 13 14 1
26 14 15 1
27 15 20 2
28 15 21 2
29 16 18 2
30 7 17 1
31 17 19 2
32 17 18 2
33 20 31 1
34 21 32 1
@<TRIPOS>SUBSTRUCTURE
1	UNK0	1	GROUP	1 ****	UNK
