# created with PyMOL 2.3.4
@<TRIPOS>MOLECULE
ligand_out_0001
32 34 1                 
SMALL
USER_CHARGES
@<TRIPOS>ATOM
1	   N	134.757	131.882	146.522	N.3	1	UNK0	-0.235	
2	   N	136.306	133.587	146.041	N.3	1	UNK0	-0.218	
3	   N	136.191	135.757	143.857	N.3	1	UNK0	-0.216	
4	   N	134.449	136.903	142.739	N.3	1	UNK0	-0.235	
5	   N	134.497	134.548	142.945	N.3	1	UNK0	-0.191	
6	   N	135.043	132.638	144.325	N.3	1	UNK0	-0.183	
7	   N	139.803	130.260	146.545	N.pl3	1	UNK0	-0.346	
8	   C	135.341	132.669	145.663	C.3	1	UNK0	0.672	
9	   C	137.323	133.963	145.064	C.3	1	UNK0	0.151	
10	   C	136.729	134.386	143.735	C.3	1	UNK0	0.180	
11	   C	135.011	135.804	143.155	C.3	1	UNK0	0.670	
12	   C	135.530	133.560	143.299	C.3	1	UNK0	0.217	
13	   C	134.221	131.649	143.604	C.3	1	UNK0	0.150	
14	   C	134.985	131.410	142.279	C.3	1	UNK0	0.093	
15	   C	135.851	132.680	142.078	C.3	1	UNK0	0.209	
16	   C	138.250	132.768	144.832	C.2	1	UNK0	0.208	
17	   C	138.686	131.006	146.439	C.2	1	UNK0	0.358	
18	   O	138.775	132.307	146.104	O.2	1	UNK0	-0.302	
19	   O	137.598	130.505	146.645	O.co2	1	UNK0	-0.239	
20	   O	135.485	133.345	140.868	O.2	1	UNK0	-0.362	
21	   O	137.239	132.340	142.062	O.2	1	UNK0	-0.362	
22	   H	134.995	131.927	147.461	 H	1	UNK0	0.174	
23	   H	134.082	131.252	146.223	 H	1	UNK0	0.174	
24	   H	134.866	137.760	142.922	 H	1	UNK0	0.174	
25	   H	133.614	136.865	142.247	 H	1	UNK0	0.174	
26	   H	136.305	133.971	146.931	 H	1	UNK0	0.178	
27	   H	136.596	136.491	144.345	 H	1	UNK0	0.178	
28	   H	133.607	134.347	142.617	 H	1	UNK0	0.180	
29	   H	140.672	130.659	146.381	 H	1	UNK0	0.161	
30	   H	139.739	129.322	146.786	 H	1	UNK0	0.161	
31	   H	136.296	133.721	140.500	 H	1	UNK0	0.213	
32	   H	137.323	131.488	142.513	 H	1	UNK0	0.213	
@<TRIPOS>BOND
1 1 8 1
2 1 22 1
3 1 23 1
4 2 9 1
5 2 26 1
6 3 11 1
7 3 27 1
8 4 24 1
9 4 25 1
10 5 28 1
11 6 13 1
12 7 29 1
13 7 30 1
14 2 8 1
15 6 8 1
16 9 10 1
17 9 16 1
18 3 10 1
19 10 12 1
20 4 11 1
21 5 11 1
22 5 12 1
23 6 12 1
24 12 15 1
25 13 14 1
26 14 15 1
27 15 20 2
28 15 21 2
29 16 18 2
30 7 17 1
31 17 19 2
32 17 18 2
33 20 31 1
34 21 32 1
@<TRIPOS>SUBSTRUCTURE
1	UNK0	1	GROUP	1 ****	UNK
