# created with PyMOL 2.3.4
@<TRIPOS>MOLECULE
ligand_out_0001
28 30 1                 
SMALL
USER_CHARGES
@<TRIPOS>ATOM
1	   N	135.091	136.541	143.268	N.3	1	UNK0	-0.235	
2	   N	133.842	134.565	143.008	N.3	1	UNK0	-0.218	
3	   N	134.250	131.783	144.294	N.3	1	UNK0	-0.216	
4	   N	134.690	131.967	146.610	N.3	1	UNK0	-0.235	
5	   N	136.275	132.571	144.960	N.3	1	UNK0	-0.197	
6	   N	136.135	134.450	143.435	N.3	1	UNK0	-0.189	
7	   N	133.530	136.104	139.784	N.pl3	1	UNK0	-0.346	
8	   C	135.027	135.239	143.241	C.3	1	UNK0	0.672	
9	   C	133.902	133.251	142.376	C.3	1	UNK0	0.151	
10	   C	134.875	132.316	143.069	C.3	1	UNK0	0.174	
11	   C	135.049	132.100	145.364	C.3	1	UNK0	0.670	
12	   C	136.141	132.994	143.562	C.3	1	UNK0	0.162	
13	   C	137.538	134.883	143.512	C.3	1	UNK0	0.144	
14	   C	138.399	133.682	143.069	C.3	1	UNK0	0.025	
15	   C	137.384	132.556	142.764	C.3	1	UNK0	0.059	
16	   C	134.336	133.423	140.919	C.2	1	UNK0	0.208	
17	   C	133.285	134.875	139.287	C.2	1	UNK0	0.358	
18	   O	133.192	133.820	140.117	O.2	1	UNK0	-0.302	
19	   O	133.148	134.721	138.089	O.co2	1	UNK0	-0.239	
20	   H	134.290	137.069	143.122	 H	1	UNK0	0.174	
21	   H	135.938	136.982	143.437	 H	1	UNK0	0.174	
22	   H	133.808	131.627	146.827	 H	1	UNK0	0.174	
23	   H	135.305	132.209	147.321	 H	1	UNK0	0.174	
24	   H	132.990	134.957	143.261	 H	1	UNK0	0.178	
25	   H	133.414	131.292	144.338	 H	1	UNK0	0.178	
26	   H	137.080	132.618	145.499	 H	1	UNK0	0.180	
27	   H	133.640	136.227	140.740	 H	1	UNK0	0.161	
28	   H	133.597	136.865	139.186	 H	1	UNK0	0.161	
@<TRIPOS>BOND
1 1 8 1
2 1 20 1
3 1 21 1
4 2 9 1
5 2 24 1
6 3 11 1
7 3 25 1
8 4 22 1
9 4 23 1
10 5 26 1
11 6 13 1
12 7 27 1
13 7 28 1
14 2 8 1
15 6 8 1
16 9 10 1
17 9 16 1
18 3 10 1
19 10 12 1
20 4 11 1
21 5 11 1
22 5 12 1
23 6 12 1
24 12 15 1
25 13 14 1
26 14 15 1
27 16 18 2
28 7 17 1
29 17 19 2
30 17 18 2
@<TRIPOS>SUBSTRUCTURE
1	UNK0	1	GROUP	1 ****	UNK
