# created with PyMOL 2.3.4
@<TRIPOS>MOLECULE
ligand_out_0001
28 30 1                 
SMALL
USER_CHARGES
@<TRIPOS>ATOM
1	   N	135.110	136.538	143.280	N.3	1	UNK0	-0.235	
2	   N	133.835	134.571	143.087	N.3	1	UNK0	-0.218	
3	   N	134.255	131.804	144.402	N.3	1	UNK0	-0.216	
4	   N	134.763	132.018	146.701	N.3	1	UNK0	-0.235	
5	   N	136.306	132.582	144.998	N.3	1	UNK0	-0.197	
6	   N	136.139	134.440	143.449	N.3	1	UNK0	-0.189	
7	   N	133.538	136.137	139.802	N.pl3	1	UNK0	-0.346	
8	   C	135.034	135.236	143.275	C.3	1	UNK0	0.672	
9	   C	133.865	133.247	142.473	C.3	1	UNK0	0.151	
10	   C	134.849	132.313	143.151	C.3	1	UNK0	0.174	
11	   C	135.088	132.129	145.444	C.3	1	UNK0	0.670	
12	   C	136.135	132.986	143.598	C.3	1	UNK0	0.162	
13	   C	137.548	134.860	143.480	C.3	1	UNK0	0.144	
14	   C	138.384	133.644	143.030	C.3	1	UNK0	0.025	
15	   C	137.350	132.524	142.771	C.3	1	UNK0	0.059	
16	   C	134.258	133.393	141.001	C.2	1	UNK0	0.208	
17	   C	133.283	134.889	139.362	C.2	1	UNK0	0.358	
18	   O	133.122	133.884	140.243	O.2	1	UNK0	-0.302	
19	   O	133.197	134.671	138.169	O.co2	1	UNK0	-0.239	
20	   H	134.311	137.071	143.150	 H	1	UNK0	0.174	
21	   H	135.966	136.973	143.419	 H	1	UNK0	0.174	
22	   H	133.885	131.690	146.949	 H	1	UNK0	0.174	
23	   H	135.401	132.265	147.390	 H	1	UNK0	0.174	
24	   H	132.996	134.975	143.358	 H	1	UNK0	0.178	
25	   H	133.416	131.322	144.477	 H	1	UNK0	0.178	
26	   H	137.126	132.630	145.513	 H	1	UNK0	0.180	
27	   H	133.607	136.311	140.754	 H	1	UNK0	0.161	
28	   H	133.654	136.861	139.167	 H	1	UNK0	0.161	
@<TRIPOS>BOND
1 1 8 1
2 1 20 1
3 1 21 1
4 2 9 1
5 2 24 1
6 3 11 1
7 3 25 1
8 4 22 1
9 4 23 1
10 5 26 1
11 6 13 1
12 7 27 1
13 7 28 1
14 2 8 1
15 6 8 1
16 9 10 1
17 9 16 1
18 3 10 1
19 10 12 1
20 4 11 1
21 5 11 1
22 5 12 1
23 6 12 1
24 12 15 1
25 13 14 1
26 14 15 1
27 16 18 2
28 7 17 1
29 17 19 2
30 17 18 2
@<TRIPOS>SUBSTRUCTURE
1	UNK0	1	GROUP	1 ****	UNK
