MODEL 1
REMARK VINA RESULT:      -7.9      0.000      0.000
REMARK  3 active torsions:
REMARK  status: ('A' for Active; 'I' for Inactive)
REMARK    1  A    between atoms: C_6  and  C_7 
REMARK    2  A    between atoms: C_7  and  O_8 
REMARK    3  A    between atoms: O_8  and  C_9 
REMARK       I    between atoms: C_9  and  N_10 
ROOT
ATOM      1  N           0     135.110 136.538 143.280  0.00  0.00    -0.235 N 
ATOM      2  H           0     134.311 137.071 143.150  0.00  0.00     0.174 HD
ATOM      3  H           0     135.966 136.973 143.419  0.00  0.00     0.174 HD
ATOM      4  C           0     135.034 135.236 143.275  0.00  0.00     0.672 C 
ATOM      5  N           0     133.835 134.571 143.087  0.00  0.00    -0.218 N 
ATOM      6  C           0     133.865 133.247 142.473  0.00  0.00     0.151 C 
ATOM      7  C           0     134.849 132.313 143.151  0.00  0.00     0.174 C 
ATOM      8  N           0     134.255 131.804 144.402  0.00  0.00    -0.216 N 
ATOM      9  C           0     135.088 132.129 145.444  0.00  0.00     0.670 C 
ATOM     10  N           0     134.763 132.018 146.701  0.00  0.00    -0.235 N 
ATOM     11  H           0     133.885 131.690 146.949  0.00  0.00     0.174 HD
ATOM     12  H           0     135.401 132.265 147.390  0.00  0.00     0.174 HD
ATOM     13  C           0     136.135 132.986 143.598  0.00  0.00     0.162 C 
ATOM     14  N           0     136.306 132.582 144.998  0.00  0.00    -0.197 N 
ATOM     15  N           0     136.139 134.440 143.449  0.00  0.00    -0.189 N 
ATOM     16  C           0     137.548 134.860 143.480  0.00  0.00     0.144 C 
ATOM     17  C           0     138.384 133.644 143.030  0.00  0.00     0.025 C 
ATOM     18  C           0     137.350 132.524 142.771  0.00  0.00     0.059 C 
ATOM     19  H           0     132.996 134.975 143.358  0.00  0.00     0.178 HD
ATOM     20  H           0     133.416 131.322 144.477  0.00  0.00     0.178 HD
ATOM     21  H           0     137.126 132.630 145.513  0.00  0.00     0.180 HD
ENDROOT
BRANCH   6  22
ATOM     22  C           0     134.258 133.393 141.001  0.00  0.00     0.208 C 
BRANCH  22  23
ATOM     23  O           0     133.122 133.884 140.243  0.00  0.00    -0.302 OA
BRANCH  23  24
ATOM     24  C           0     133.283 134.889 139.362  0.00  0.00     0.358 C 
ATOM     25  N           0     133.538 136.137 139.802  0.00  0.00    -0.346 N 
ATOM     26  H           0     133.607 136.311 140.754  0.00  0.00     0.161 HD
ATOM     27  H           0     133.654 136.861 139.167  0.00  0.00     0.161 HD
ATOM     28  O           0     133.197 134.671 138.169  0.00  0.00    -0.239 OA
ENDBRANCH  23  24
ENDBRANCH  22  23
ENDBRANCH   6  22
TORSDOF 3
ENDMDL
MODEL 2
REMARK VINA RESULT:      -6.7      1.697      3.455
REMARK  3 active torsions:
REMARK  status: ('A' for Active; 'I' for Inactive)
REMARK    1  A    between atoms: C_6  and  C_7 
REMARK    2  A    between atoms: C_7  and  O_8 
REMARK    3  A    between atoms: O_8  and  C_9 
REMARK       I    between atoms: C_9  and  N_10 
ROOT
ATOM      1  N           0     135.013 130.264 143.597  0.00  0.00    -0.235 N 
ATOM      2  H           0     134.743 129.757 142.816  0.00  0.00     0.174 HD
ATOM      3  H           0     134.961 129.862 144.479  0.00  0.00     0.174 HD
ATOM      4  C           0     135.452 131.484 143.463  0.00  0.00     0.672 C 
ATOM      5  N           0     135.550 132.099 142.227  0.00  0.00    -0.218 N 
ATOM      6  C           0     135.421 133.551 142.161  0.00  0.00     0.151 C 
ATOM      7  C           0     136.335 134.262 143.141  0.00  0.00     0.174 C 
ATOM      8  N           0     137.707 134.282 142.600  0.00  0.00    -0.216 N 
ATOM      9  C           0     138.542 133.679 143.508  0.00  0.00     0.670 C 
ATOM     10  N           0     139.775 133.340 143.254  0.00  0.00    -0.235 N 
ATOM     11  H           0     140.155 133.510 142.378  0.00  0.00     0.174 HD
ATOM     12  H           0     140.313 132.916 143.942  0.00  0.00     0.174 HD
ATOM     13  C           0     136.473 133.560 144.480  0.00  0.00     0.162 C 
ATOM     14  N           0     137.919 133.479 144.716  0.00  0.00    -0.197 N 
ATOM     15  N           0     135.840 132.243 144.540  0.00  0.00    -0.189 N 
ATOM     16  C           0     135.669 131.925 145.965  0.00  0.00     0.144 C 
ATOM     17  C           0     135.624 133.271 146.718  0.00  0.00     0.025 C 
ATOM     18  C           0     135.803 134.347 145.622  0.00  0.00     0.059 C 
ATOM     19  H           0     135.703 131.576 141.424  0.00  0.00     0.178 HD
ATOM     20  H           0     137.976 134.658 141.747  0.00  0.00     0.178 HD
ATOM     21  H           0     138.353 133.312 145.567  0.00  0.00     0.180 HD
ENDROOT
BRANCH   6  22
ATOM     22  C           0     133.972 133.932 142.471  0.00  0.00     0.208 C 
BRANCH  22  23
ATOM     23  O           0     133.609 135.114 141.710  0.00  0.00    -0.302 OA
BRANCH  23  24
ATOM     24  C           0     133.218 134.994 140.427  0.00  0.00     0.358 C 
ATOM     25  N           0     133.542 135.947 139.532  0.00  0.00    -0.346 N 
ATOM     26  H           0     134.059 136.720 139.811  0.00  0.00     0.161 HD
ATOM     27  H           0     133.260 135.861 138.607  0.00  0.00     0.161 HD
ATOM     28  O           0     132.571 134.026 140.077  0.00  0.00    -0.239 OA
ENDBRANCH  23  24
ENDBRANCH  22  23
ENDBRANCH   6  22
TORSDOF 3
ENDMDL
MODEL 3
REMARK VINA RESULT:      -6.6     10.112     11.891
REMARK  3 active torsions:
REMARK  status: ('A' for Active; 'I' for Inactive)
REMARK    1  A    between atoms: C_6  and  C_7 
REMARK    2  A    between atoms: C_7  and  O_8 
REMARK    3  A    between atoms: O_8  and  C_9 
REMARK       I    between atoms: C_9  and  N_10 
ROOT
ATOM      1  N           0     130.260 131.421 135.176  0.00  0.00    -0.235 N 
ATOM      2  H           0     129.395 131.675 135.532  0.00  0.00     0.174 HD
ATOM      3  H           0     131.072 131.720 135.614  0.00  0.00     0.174 HD
ATOM      4  C           0     130.333 130.671 134.112  0.00  0.00     0.672 C 
ATOM      5  N           0     129.204 130.214 133.455  0.00  0.00    -0.218 N 
ATOM      6  C           0     129.290 129.959 132.021  0.00  0.00     0.151 C 
ATOM      7  C           0     130.466 129.074 131.657  0.00  0.00     0.174 C 
ATOM      8  N           0     130.133 127.670 131.965  0.00  0.00    -0.216 N 
ATOM      9  C           0     131.073 127.179 132.836  0.00  0.00     0.670 C 
ATOM     10  N           0     130.960 126.048 133.473  0.00  0.00    -0.235 N 
ATOM     11  H           0     130.174 125.496 133.346  0.00  0.00     0.174 HD
ATOM     12  H           0     131.664 125.759 134.076  0.00  0.00     0.174 HD
ATOM     13  C           0     131.720 129.344 132.469  0.00  0.00     0.162 C 
ATOM     14  N           0     132.149 128.027 132.952  0.00  0.00    -0.197 N 
ATOM     15  N           0     131.535 130.290 133.568  0.00  0.00    -0.189 N 
ATOM     16  C           0     132.875 130.774 133.934  0.00  0.00     0.144 C 
ATOM     17  C           0     133.766 130.603 132.685  0.00  0.00     0.025 C 
ATOM     18  C           0     132.839 129.976 131.618  0.00  0.00     0.059 C 
ATOM     19  H           0     128.375 130.067 133.938  0.00  0.00     0.178 HD
ATOM     20  H           0     129.376 127.176 131.612  0.00  0.00     0.178 HD
ATOM     21  H           0     133.028 127.799 133.292  0.00  0.00     0.180 HD
ENDROOT
BRANCH   6  22
ATOM     22  C           0     129.433 131.295 131.289  0.00  0.00     0.208 C 
BRANCH  22  23
ATOM     23  O           0     128.117 131.862 131.054  0.00  0.00    -0.302 OA
BRANCH  23  24
ATOM     24  C           0     127.722 132.952 131.738  0.00  0.00     0.358 C 
ATOM     25  N           0     128.596 133.607 132.527  0.00  0.00    -0.346 N 
ATOM     26  H           0     129.511 133.293 132.602  0.00  0.00     0.161 HD
ATOM     27  H           0     128.311 134.393 133.021  0.00  0.00     0.161 HD
ATOM     28  O           0     126.575 133.345 131.644  0.00  0.00    -0.239 OA
ENDBRANCH  23  24
ENDBRANCH  22  23
ENDBRANCH   6  22
TORSDOF 3
ENDMDL
MODEL 4
REMARK VINA RESULT:      -6.5      3.442      5.844
REMARK  3 active torsions:
REMARK  status: ('A' for Active; 'I' for Inactive)
REMARK    1  A    between atoms: C_6  and  C_7 
REMARK    2  A    between atoms: C_7  and  O_8 
REMARK    3  A    between atoms: O_8  and  C_9 
REMARK       I    between atoms: C_9  and  N_10 
ROOT
ATOM      1  N           0     134.869 132.082 146.523  0.00  0.00    -0.235 N 
ATOM      2  H           0     135.147 132.160 147.448  0.00  0.00     0.174 HD
ATOM      3  H           0     134.129 131.502 146.285  0.00  0.00     0.174 HD
ATOM      4  C           0     135.487 132.761 145.596  0.00  0.00     0.672 C 
ATOM      5  N           0     136.544 133.606 145.886  0.00  0.00    -0.218 N 
ATOM      6  C           0     137.560 133.823 144.861  0.00  0.00     0.151 C 
ATOM      7  C           0     136.963 134.218 143.524  0.00  0.00     0.174 C 
ATOM      8  N           0     136.585 135.644 143.561  0.00  0.00    -0.216 N 
ATOM      9  C           0     135.246 135.748 143.275  0.00  0.00     0.670 C 
ATOM     10  N           0     134.547 136.836 143.432  0.00  0.00    -0.235 N 
ATOM     11  H           0     134.970 137.640 143.772  0.00  0.00     0.174 HD
ATOM     12  H           0     133.602 136.842 143.210  0.00  0.00     0.174 HD
ATOM     13  C           0     135.668 133.499 143.187  0.00  0.00     0.162 C 
ATOM     14  N           0     134.735 134.563 142.800  0.00  0.00    -0.197 N 
ATOM     15  N           0     135.134 132.679 144.272  0.00  0.00    -0.189 N 
ATOM     16  C           0     134.189 131.734 143.656  0.00  0.00     0.144 C 
ATOM     17  C           0     134.616 131.576 142.182  0.00  0.00     0.025 C 
ATOM     18  C           0     135.840 132.508 142.020  0.00  0.00     0.059 C 
ATOM     19  H           0     136.607 134.043 146.750  0.00  0.00     0.178 HD
ATOM     20  H           0     137.181 136.384 143.755  0.00  0.00     0.178 HD
ATOM     21  H           0     133.909 134.451 142.304  0.00  0.00     0.180 HD
ENDROOT
BRANCH   6  22
ATOM     22  C           0     138.364 132.534 144.680  0.00  0.00     0.208 C 
BRANCH  22  23
ATOM     23  O           0     138.981 132.168 145.942  0.00  0.00    -0.302 OA
BRANCH  23  24
ATOM     24  C           0     138.786 130.939 146.456  0.00  0.00     0.358 C 
ATOM     25  N           0     139.832 130.107 146.632  0.00  0.00    -0.346 N 
ATOM     26  H           0     140.726 130.395 146.389  0.00  0.00     0.161 HD
ATOM     27  H           0     139.691 129.222 147.002  0.00  0.00     0.161 HD
ATOM     28  O           0     137.666 130.579 146.761  0.00  0.00    -0.239 OA
ENDBRANCH  23  24
ENDBRANCH  22  23
ENDBRANCH   6  22
TORSDOF 3
ENDMDL
MODEL 5
REMARK VINA RESULT:      -6.2      2.810      4.998
REMARK  3 active torsions:
REMARK  status: ('A' for Active; 'I' for Inactive)
REMARK    1  A    between atoms: C_6  and  C_7 
REMARK    2  A    between atoms: C_7  and  O_8 
REMARK    3  A    between atoms: O_8  and  C_9 
REMARK       I    between atoms: C_9  and  N_10 
ROOT
ATOM      1  N           0     134.241 129.013 146.709  0.00  0.00    -0.235 N 
ATOM      2  H           0     133.877 128.427 146.028  0.00  0.00     0.174 HD
ATOM      3  H           0     133.967 128.911 147.634  0.00  0.00     0.174 HD
ATOM      4  C           0     135.104 129.935 146.383  0.00  0.00     0.672 C 
ATOM      5  N           0     135.530 130.115 145.079  0.00  0.00    -0.218 N 
ATOM      6  C           0     135.944 131.451 144.662  0.00  0.00     0.151 C 
ATOM      7  C           0     136.961 132.066 145.604  0.00  0.00     0.174 C 
ATOM      8  N           0     138.290 131.485 145.332  0.00  0.00    -0.216 N 
ATOM      9  C           0     138.763 130.918 146.489  0.00  0.00     0.670 C 
ATOM     10  N           0     139.806 130.138 146.547  0.00  0.00    -0.235 N 
ATOM     11  H           0     140.299 129.925 145.740  0.00  0.00     0.174 HD
ATOM     12  H           0     140.088 129.769 147.400  0.00  0.00     0.174 HD
ATOM     13  C           0     136.714 131.757 147.070  0.00  0.00     0.162 C 
ATOM     14  N           0     138.004 131.275 147.577  0.00  0.00    -0.197 N 
ATOM     15  N           0     135.643 130.791 147.311  0.00  0.00    -0.189 N 
ATOM     16  C           0     135.241 130.955 148.717  0.00  0.00     0.144 C 
ATOM     17  C           0     135.621 132.394 149.123  0.00  0.00     0.025 C 
ATOM     18  C           0     136.277 133.004 147.862  0.00  0.00     0.059 C 
ATOM     19  H           0     135.553 129.371 144.457  0.00  0.00     0.178 HD
ATOM     20  H           0     138.752 131.501 144.479  0.00  0.00     0.178 HD
ATOM     21  H           0     138.270 131.218 148.508  0.00  0.00     0.180 HD
ENDROOT
BRANCH   6  22
ATOM     22  C           0     134.711 132.357 144.609  0.00  0.00     0.208 C 
BRANCH  22  23
ATOM     23  O           0     134.821 133.258 143.476  0.00  0.00    -0.302 OA
BRANCH  23  24
ATOM     24  C           0     134.766 132.773 142.222  0.00  0.00     0.358 C 
ATOM     25  N           0     135.755 133.048 141.349  0.00  0.00    -0.346 N 
ATOM     26  H           0     136.507 133.595 141.625  0.00  0.00     0.161 HD
ATOM     27  H           0     135.716 132.698 140.445  0.00  0.00     0.161 HD
ATOM     28  O           0     133.824 132.087 141.876  0.00  0.00    -0.239 OA
ENDBRANCH  23  24
ENDBRANCH  22  23
ENDBRANCH   6  22
TORSDOF 3
ENDMDL
MODEL 6
REMARK VINA RESULT:      -6.1      7.548     10.118
REMARK  3 active torsions:
REMARK  status: ('A' for Active; 'I' for Inactive)
REMARK    1  A    between atoms: C_6  and  C_7 
REMARK    2  A    between atoms: C_7  and  O_8 
REMARK    3  A    between atoms: O_8  and  C_9 
REMARK       I    between atoms: C_9  and  N_10 
ROOT
ATOM      1  N           0     131.165 137.464 132.440  0.00  0.00    -0.235 N 
ATOM      2  H           0     130.292 137.868 132.327  0.00  0.00     0.174 HD
ATOM      3  H           0     131.944 137.865 132.023  0.00  0.00     0.174 HD
ATOM      4  C           0     131.295 136.381 133.156  0.00  0.00     0.672 C 
ATOM      5  N           0     130.216 135.775 133.775  0.00  0.00    -0.218 N 
ATOM      6  C           0     130.263 134.333 133.996  0.00  0.00     0.151 C 
ATOM      7  C           0     131.540 133.891 134.683  0.00  0.00     0.174 C 
ATOM      8  N           0     131.445 134.187 136.125  0.00  0.00    -0.216 N 
ATOM      9  C           0     132.495 134.998 136.475  0.00  0.00     0.670 C 
ATOM     10  N           0     132.593 135.617 137.617  0.00  0.00    -0.235 N 
ATOM     11  H           0     131.895 135.519 138.284  0.00  0.00     0.174 HD
ATOM     12  H           0     133.364 136.177 137.801  0.00  0.00     0.174 HD
ATOM     13  C           0     132.780 134.642 134.231  0.00  0.00     0.162 C 
ATOM     14  N           0     133.432 135.076 135.472  0.00  0.00    -0.197 N 
ATOM     15  N           0     132.510 135.768 133.339  0.00  0.00    -0.189 N 
ATOM     16  C           0     133.778 136.075 132.658  0.00  0.00     0.144 C 
ATOM     17  C           0     134.615 134.779 132.673  0.00  0.00     0.025 C 
ATOM     18  C           0     133.740 133.748 133.423  0.00  0.00     0.059 C 
ATOM     19  H           0     129.448 136.297 134.055  0.00  0.00     0.178 HD
ATOM     20  H           0     130.756 133.863 136.727  0.00  0.00     0.178 HD
ATOM     21  H           0     134.353 135.366 135.565  0.00  0.00     0.180 HD
ENDROOT
BRANCH   6  22
ATOM     22  C           0     130.159 133.622 132.645  0.00  0.00     0.208 C 
BRANCH  22  23
ATOM     23  O           0     128.935 134.028 131.977  0.00  0.00    -0.302 OA
BRANCH  23  24
ATOM     24  C           0     127.969 133.122 131.733  0.00  0.00     0.358 C 
ATOM     25  N           0     128.288 131.917 131.223  0.00  0.00    -0.346 N 
ATOM     26  H           0     129.215 131.701 131.033  0.00  0.00     0.161 HD
ATOM     27  H           0     127.593 131.264 131.047  0.00  0.00     0.161 HD
ATOM     28  O           0     126.808 133.392 131.972  0.00  0.00    -0.239 OA
ENDBRANCH  23  24
ENDBRANCH  22  23
ENDBRANCH   6  22
TORSDOF 3
ENDMDL
MODEL 7
REMARK VINA RESULT:      -6.0      4.303      6.450
REMARK  3 active torsions:
REMARK  status: ('A' for Active; 'I' for Inactive)
REMARK    1  A    between atoms: C_6  and  C_7 
REMARK    2  A    between atoms: C_7  and  O_8 
REMARK    3  A    between atoms: O_8  and  C_9 
REMARK       I    between atoms: C_9  and  N_10 
ROOT
ATOM      1  N           0     135.875 134.627 147.213  0.00  0.00    -0.235 N 
ATOM      2  H           0     136.251 135.499 147.018  0.00  0.00     0.174 HD
ATOM      3  H           0     135.271 134.515 147.964  0.00  0.00     0.174 HD
ATOM      4  C           0     136.176 133.604 146.461  0.00  0.00     0.672 C 
ATOM      5  N           0     137.028 133.714 145.377  0.00  0.00    -0.218 N 
ATOM      6  C           0     137.808 132.545 144.986  0.00  0.00     0.151 C 
ATOM      7  C           0     136.954 131.303 144.820  0.00  0.00     0.174 C 
ATOM      8  N           0     136.252 131.364 143.523  0.00  0.00    -0.216 N 
ATOM      9  C           0     134.902 131.278 143.754  0.00  0.00     0.670 C 
ATOM     10  N           0     133.990 131.513 142.853  0.00  0.00    -0.235 N 
ATOM     11  H           0     134.249 131.768 141.954  0.00  0.00     0.174 HD
ATOM     12  H           0     133.050 131.433 143.082  0.00  0.00     0.174 HD
ATOM     13  C           0     135.837 131.178 145.841  0.00  0.00     0.162 C 
ATOM     14  N           0     134.631 130.911 145.050  0.00  0.00    -0.197 N 
ATOM     15  N           0     135.672 132.349 146.701  0.00  0.00    -0.189 N 
ATOM     16  C           0     134.907 131.902 147.875  0.00  0.00     0.144 C 
ATOM     17  C           0     135.151 130.384 148.012  0.00  0.00     0.025 C 
ATOM     18  C           0     136.079 130.021 146.829  0.00  0.00     0.059 C 
ATOM     19  H           0     137.103 134.549 144.888  0.00  0.00     0.178 HD
ATOM     20  H           0     136.673 131.451 142.653  0.00  0.00     0.178 HD
ATOM     21  H           0     133.796 130.546 145.382  0.00  0.00     0.180 HD
ENDROOT
BRANCH   6  22
ATOM     22  C           0     138.866 132.276 146.058  0.00  0.00     0.208 C 
BRANCH  22  23
ATOM     23  O           0     139.308 130.896 145.966  0.00  0.00    -0.302 OA
BRANCH  23  24
ATOM     24  C           0     140.007 130.344 146.976  0.00  0.00     0.358 C 
ATOM     25  N           0     139.515 130.371 148.230  0.00  0.00    -0.346 N 
ATOM     26  H           0     138.656 130.788 148.405  0.00  0.00     0.161 HD
ATOM     27  H           0     140.018 129.974 148.959  0.00  0.00     0.161 HD
ATOM     28  O           0     141.083 129.822 146.757  0.00  0.00    -0.239 OA
ENDBRANCH  23  24
ENDBRANCH  22  23
ENDBRANCH   6  22
TORSDOF 3
ENDMDL
MODEL 8
REMARK VINA RESULT:      -6.0      2.777      4.845
REMARK  3 active torsions:
REMARK  status: ('A' for Active; 'I' for Inactive)
REMARK    1  A    between atoms: C_6  and  C_7 
REMARK    2  A    between atoms: C_7  and  O_8 
REMARK    3  A    between atoms: O_8  and  C_9 
REMARK       I    between atoms: C_9  and  N_10 
ROOT
ATOM      1  N           0     135.300 130.507 143.596  0.00  0.00    -0.235 N 
ATOM      2  H           0     135.333 130.753 142.659  0.00  0.00     0.174 HD
ATOM      3  H           0     134.724 129.784 143.889  0.00  0.00     0.174 HD
ATOM      4  C           0     136.034 131.147 144.464  0.00  0.00     0.672 C 
ATOM      5  N           0     136.875 132.182 144.095  0.00  0.00    -0.218 N 
ATOM      6  C           0     137.157 133.229 145.072  0.00  0.00     0.151 C 
ATOM      7  C           0     137.615 132.672 146.406  0.00  0.00     0.174 C 
ATOM      8  N           0     139.032 132.273 146.308  0.00  0.00    -0.216 N 
ATOM      9  C           0     139.135 130.944 146.634  0.00  0.00     0.670 C 
ATOM     10  N           0     140.205 130.226 146.445  0.00  0.00    -0.235 N 
ATOM     11  H           0     140.995 130.626 146.049  0.00  0.00     0.174 HD
ATOM     12  H           0     140.212 129.289 146.699  0.00  0.00     0.174 HD
ATOM     13  C           0     136.899 131.399 146.825  0.00  0.00     0.162 C 
ATOM     14  N           0     137.971 130.465 147.187  0.00  0.00    -0.197 N 
ATOM     15  N           0     136.017 130.840 145.802  0.00  0.00    -0.189 N 
ATOM     16  C           0     135.094 129.929 146.499  0.00  0.00     0.144 C 
ATOM     17  C           0     135.019 130.408 147.963  0.00  0.00     0.025 C 
ATOM     18  C           0     135.973 131.623 148.035  0.00  0.00     0.059 C 
ATOM     19  H           0     137.267 132.210 143.208  0.00  0.00     0.178 HD
ATOM     20  H           0     139.768 132.853 146.055  0.00  0.00     0.178 HD
ATOM     21  H           0     137.875 129.659 147.717  0.00  0.00     0.180 HD
ENDROOT
BRANCH   6  22
ATOM     22  C           0     135.889 134.056 145.291  0.00  0.00     0.208 C 
BRANCH  22  23
ATOM     23  O           0     135.116 134.092 144.063  0.00  0.00    -0.302 OA
BRANCH  23  24
ATOM     24  C           0     135.029 135.235 143.356  0.00  0.00     0.358 C 
ATOM     25  N           0     135.957 136.199 143.515  0.00  0.00    -0.346 N 
ATOM     26  H           0     136.690 136.068 144.138  0.00  0.00     0.161 HD
ATOM     27  H           0     135.895 137.022 143.006  0.00  0.00     0.161 HD
ATOM     28  O           0     134.112 135.398 142.575  0.00  0.00    -0.239 OA
ENDBRANCH  23  24
ENDBRANCH  22  23
ENDBRANCH   6  22
TORSDOF 3
ENDMDL
MODEL 9
REMARK VINA RESULT:      -6.0      3.718      4.835
REMARK  3 active torsions:
REMARK  status: ('A' for Active; 'I' for Inactive)
REMARK    1  A    between atoms: C_6  and  C_7 
REMARK    2  A    between atoms: C_7  and  O_8 
REMARK    3  A    between atoms: O_8  and  C_9 
REMARK       I    between atoms: C_9  and  N_10 
ROOT
ATOM      1  N           0     136.095 134.475 147.392  0.00  0.00    -0.235 N 
ATOM      2  H           0     135.261 134.717 146.961  0.00  0.00     0.174 HD
ATOM      3  H           0     136.472 135.051 148.076  0.00  0.00     0.174 HD
ATOM      4  C           0     136.708 133.374 147.057  0.00  0.00     0.672 C 
ATOM      5  N           0     136.207 132.519 146.091  0.00  0.00    -0.218 N 
ATOM      6  C           0     137.149 131.711 145.323  0.00  0.00     0.151 C 
ATOM      7  C           0     138.117 130.948 146.207  0.00  0.00     0.174 C 
ATOM      8  N           0     137.437 129.763 146.765  0.00  0.00    -0.216 N 
ATOM      9  C           0     137.502 129.828 148.135  0.00  0.00     0.670 C 
ATOM     10  N           0     136.821 129.058 148.936  0.00  0.00    -0.235 N 
ATOM     11  H           0     136.222 128.388 148.573  0.00  0.00     0.174 HD
ATOM     12  H           0     136.913 129.157 149.897  0.00  0.00     0.174 HD
ATOM     13  C           0     138.581 131.720 147.429  0.00  0.00     0.162 C 
ATOM     14  N           0     138.374 130.804 148.556  0.00  0.00    -0.197 N 
ATOM     15  N           0     137.894 132.994 147.634  0.00  0.00    -0.189 N 
ATOM     16  C           0     138.743 133.787 148.537  0.00  0.00     0.144 C 
ATOM     17  C           0     140.183 133.256 148.373  0.00  0.00     0.025 C 
ATOM     18  C           0     140.069 132.109 147.342  0.00  0.00     0.059 C 
ATOM     19  H           0     135.252 132.457 145.930  0.00  0.00     0.178 HD
ATOM     20  H           0     137.015 129.057 146.251  0.00  0.00     0.178 HD
ATOM     21  H           0     138.776 130.875 149.436  0.00  0.00     0.180 HD
ENDROOT
BRANCH   6  22
ATOM     22  C           0     137.948 132.630 144.396  0.00  0.00     0.208 C 
BRANCH  22  23
ATOM     23  O           0     137.468 132.479 143.034  0.00  0.00    -0.302 OA
BRANCH  23  24
ATOM     24  C           0     136.471 133.261 142.581  0.00  0.00     0.358 C 
ATOM     25  N           0     135.996 133.092 141.331  0.00  0.00    -0.346 N 
ATOM     26  H           0     136.373 132.405 140.758  0.00  0.00     0.161 HD
ATOM     27  H           0     135.278 133.655 141.003  0.00  0.00     0.161 HD
ATOM     28  O           0     135.999 134.121 143.298  0.00  0.00    -0.239 OA
ENDBRANCH  23  24
ENDBRANCH  22  23
ENDBRANCH   6  22
TORSDOF 3
ENDMDL
