# created with PyMOL 2.3.4
@<TRIPOS>MOLECULE
ligand_out_0001
28 30 1                 
SMALL
USER_CHARGES
@<TRIPOS>ATOM
1	   N	135.228	136.738	143.225	N.3	1	UNK0	-0.235	
2	   N	133.799	134.870	143.207	N.3	1	UNK0	-0.218	
3	   N	134.055	132.170	144.693	N.3	1	UNK0	-0.216	
4	   N	134.666	132.492	146.954	N.3	1	UNK0	-0.235	
5	   N	136.181	132.820	145.166	N.3	1	UNK0	-0.197	
6	   N	136.098	134.580	143.501	N.3	1	UNK0	-0.189	
7	   N	133.575	136.208	139.704	N.pl3	1	UNK0	-0.346	
8	   C	135.052	135.449	143.310	C.3	1	UNK0	0.672	
9	   C	133.703	133.511	142.684	C.3	1	UNK0	0.151	
10	   C	134.638	132.547	143.391	C.3	1	UNK0	0.174	
11	   C	134.949	132.494	145.682	C.3	1	UNK0	0.670	
12	   C	135.988	133.143	143.748	C.3	1	UNK0	0.162	
13	   C	137.535	134.888	143.456	C.3	1	UNK0	0.144	
14	   C	138.258	133.583	143.062	C.3	1	UNK0	0.025	
15	   C	137.131	132.533	142.915	C.3	1	UNK0	0.059	
16	   C	134.050	133.529	141.194	C.2	1	UNK0	0.208	
17	   C	133.171	134.950	139.437	C.2	1	UNK0	0.358	
18	   O	132.939	134.089	140.445	O.2	1	UNK0	-0.302	
19	   O	133.017	134.593	138.285	O.co2	1	UNK0	-0.239	
20	   H	134.468	137.323	143.085	 H	1	UNK0	0.174	
21	   H	136.120	137.111	143.305	 H	1	UNK0	0.174	
22	   H	133.775	132.251	147.252	 H	1	UNK0	0.174	
23	   H	135.347	132.731	147.603	 H	1	UNK0	0.174	
24	   H	133.004	135.356	143.478	 H	1	UNK0	0.178	
25	   H	133.185	131.762	144.828	 H	1	UNK0	0.178	
26	   H	137.022	132.835	145.649	 H	1	UNK0	0.180	
27	   H	133.698	136.493	140.623	 H	1	UNK0	0.161	
28	   H	133.742	136.829	138.977	 H	1	UNK0	0.161	
@<TRIPOS>BOND
1 1 8 1
2 1 20 1
3 1 21 1
4 2 9 1
5 2 24 1
6 3 11 1
7 3 25 1
8 4 22 1
9 4 23 1
10 5 26 1
11 6 13 1
12 7 27 1
13 7 28 1
14 2 8 1
15 6 8 1
16 9 10 1
17 9 16 1
18 3 10 1
19 10 12 1
20 4 11 1
21 5 11 1
22 5 12 1
23 6 12 1
24 12 15 1
25 13 14 1
26 14 15 1
27 16 18 2
28 7 17 1
29 17 19 2
30 17 18 2
@<TRIPOS>SUBSTRUCTURE
1	UNK0	1	GROUP	1 ****	UNK
