MODEL 1
REMARK VINA RESULT:      -7.7      0.000      0.000
REMARK  9 active torsions:
REMARK  status: ('A' for Active; 'I' for Inactive)
REMARK    1  A    between atoms: C_6  and  C_7 
REMARK    2  A    between atoms: C_7  and  O_8 
REMARK    3  A    between atoms: O_8  and  C_9 
REMARK       I    between atoms: C_9  and  N_10 
REMARK    4  A    between atoms: N_10  and  C_11 
REMARK    5  A    between atoms: C_11  and  C_12 
REMARK    6  A    between atoms: C_12  and  N_13 
REMARK       I    between atoms: N_13  and  C_14 
REMARK    7  A    between atoms: C_14  and  C_15 
REMARK    8  A    between atoms: C_30  and  O_31 
REMARK    9  A    between atoms: C_30  and  O_32 
ROOT
ATOM      1  N           0     139.529 130.533 145.974  0.00  0.00    -0.235 N 
ATOM      2  H           0     140.310 130.662 145.413  0.00  0.00     0.174 HD
ATOM      3  H           0     139.502 129.798 146.606  0.00  0.00     0.174 HD
ATOM      4  C           0     138.519 131.353 145.884  0.00  0.00     0.672 C 
ATOM      5  N           0     138.513 132.420 145.003  0.00  0.00    -0.218 N 
ATOM      6  C           0     137.228 132.890 144.495  0.00  0.00     0.151 C 
ATOM      7  C           0     136.223 133.153 145.599  0.00  0.00     0.180 C 
ATOM      8  N           0     136.550 134.436 146.259  0.00  0.00    -0.216 N 
ATOM      9  C           0     136.346 134.272 147.607  0.00  0.00     0.670 C 
ATOM     10  N           0     136.180 135.256 148.447  0.00  0.00    -0.235 N 
ATOM     11  H           0     136.200 136.172 148.131  0.00  0.00     0.174 HD
ATOM     12  H           0     136.039 135.070 149.389  0.00  0.00     0.174 HD
ATOM     13  C           0     136.265 132.139 146.732  0.00  0.00     0.217 C 
ATOM     14  N           0     136.334 132.946 147.961  0.00  0.00    -0.191 N 
ATOM     15  N           0     137.393 131.209 146.651  0.00  0.00    -0.183 N 
ATOM     16  C           0     137.026 130.075 147.518  0.00  0.00     0.150 C 
ATOM     17  C           0     135.511 129.882 147.277  0.00  0.00     0.093 C 
ATOM     18  C           0     135.008 131.254 146.758  0.00  0.00     0.209 C 
ATOM     19  H           0     139.342 132.845 144.730  0.00  0.00     0.178 HD
ATOM     20  H           0     136.855 135.244 145.819  0.00  0.00     0.178 HD
ATOM     21  H           0     136.364 132.600 148.866  0.00  0.00     0.180 HD
ENDROOT
BRANCH   6  22
ATOM     22  C           0     136.654 131.833 143.548  0.00  0.00     0.208 C 
BRANCH  22  23
ATOM     23  O           0     136.353 132.443 142.266  0.00  0.00    -0.302 OA
BRANCH  23  24
ATOM     24  C           0     135.086 132.777 141.961  0.00  0.00     0.360 C 
ATOM     25  N           0     134.841 133.646 140.959  0.00  0.00    -0.335 N 
ATOM     26  H           0     135.577 134.030 140.459  0.00  0.00     0.164 HD
ATOM     27  O           0     134.162 132.296 142.586  0.00  0.00    -0.239 OA
BRANCH  25  28
ATOM     28  C           0     133.461 134.009 140.626  0.00  0.00     0.144 C 
BRANCH  28  29
ATOM     29  C           0     133.443 135.387 139.961  0.00  0.00     0.142 C 
BRANCH  29  30
ATOM     30  N           0     132.693 135.313 138.704  0.00  0.00    -0.359 N 
ATOM     31  C           0     133.345 135.116 137.541  0.00  0.00     0.226 C 
ATOM     32  O           0     134.553 135.001 137.535  0.00  0.00    -0.273 OA
ATOM     33  H           0     131.727 135.405 138.709  0.00  0.00     0.162 HD
BRANCH  31  34
ATOM     34  C           0     132.574 135.039 136.249  0.00  0.00     0.182 C 
ATOM     35  I           0     133.957 134.916 134.591  0.00  0.00    -0.080 I 
ENDBRANCH  31  34
ENDBRANCH  29  30
ENDBRANCH  28  29
ENDBRANCH  25  28
ENDBRANCH  23  24
ENDBRANCH  22  23
ENDBRANCH   6  22
BRANCH  18  36
ATOM     36  O           0     134.029 131.795 147.648  0.00  0.00    -0.362 OA
ATOM     37  H           0     134.479 132.456 148.190  0.00  0.00     0.213 HD
ENDBRANCH  18  36
BRANCH  18  38
ATOM     38  O           0     134.466 131.120 145.442  0.00  0.00    -0.362 OA
ATOM     39  H           0     135.086 130.576 144.938  0.00  0.00     0.213 HD
ENDBRANCH  18  38
TORSDOF 9
ENDMDL
MODEL 2
REMARK VINA RESULT:      -7.6      4.178      7.719
REMARK  9 active torsions:
REMARK  status: ('A' for Active; 'I' for Inactive)
REMARK    1  A    between atoms: C_6  and  C_7 
REMARK    2  A    between atoms: C_7  and  O_8 
REMARK    3  A    between atoms: O_8  and  C_9 
REMARK       I    between atoms: C_9  and  N_10 
REMARK    4  A    between atoms: N_10  and  C_11 
REMARK    5  A    between atoms: C_11  and  C_12 
REMARK    6  A    between atoms: C_12  and  N_13 
REMARK       I    between atoms: N_13  and  C_14 
REMARK    7  A    between atoms: C_14  and  C_15 
REMARK    8  A    between atoms: C_30  and  O_31 
REMARK    9  A    between atoms: C_30  and  O_32 
ROOT
ATOM      1  N           0     134.744 131.907 146.586  0.00  0.00    -0.235 N 
ATOM      2  H           0     134.964 131.975 147.528  0.00  0.00     0.174 HD
ATOM      3  H           0     134.084 131.262 146.287  0.00  0.00     0.174 HD
ATOM      4  C           0     135.330 132.687 145.722  0.00  0.00     0.672 C 
ATOM      5  N           0     136.273 133.627 146.098  0.00  0.00    -0.218 N 
ATOM      6  C           0     137.303 134.000 145.133  0.00  0.00     0.151 C 
ATOM      7  C           0     136.727 134.388 143.785  0.00  0.00     0.180 C 
ATOM      8  N           0     136.165 135.753 143.871  0.00  0.00    -0.216 N 
ATOM      9  C           0     134.997 135.767 143.148  0.00  0.00     0.670 C 
ATOM     10  N           0     134.426 136.850 142.700  0.00  0.00    -0.235 N 
ATOM     11  H           0     134.825 137.716 142.874  0.00  0.00     0.174 HD
ATOM     12  H           0     133.600 136.789 142.194  0.00  0.00     0.174 HD
ATOM     13  C           0     135.548 133.535 143.344  0.00  0.00     0.217 C 
ATOM     14  N           0     134.507 134.499 142.953  0.00  0.00    -0.191 N 
ATOM     15  N           0     135.056 132.625 144.380  0.00  0.00    -0.183 N 
ATOM     16  C           0     134.265 131.609 143.664  0.00  0.00     0.150 C 
ATOM     17  C           0     135.056 131.356 142.359  0.00  0.00     0.093 C 
ATOM     18  C           0     135.904 132.636 142.148  0.00  0.00     0.209 C 
ATOM     19  H           0     136.251 134.028 146.982  0.00  0.00     0.178 HD
ATOM     20  H           0     136.550 136.502 144.351  0.00  0.00     0.178 HD
ATOM     21  H           0     133.627 134.277 142.613  0.00  0.00     0.180 HD
ENDROOT
BRANCH   6  22
ATOM     22  C           0     138.252 132.816 144.940  0.00  0.00     0.208 C 
BRANCH  22  23
ATOM     23  O           0     139.048 132.633 146.140  0.00  0.00    -0.302 OA
BRANCH  23  24
ATOM     24  C           0     138.643 131.773 147.093  0.00  0.00     0.360 C 
ATOM     25  N           0     138.655 130.446 146.853  0.00  0.00    -0.335 N 
ATOM     26  H           0     138.956 130.111 145.994  0.00  0.00     0.164 HD
ATOM     27  O           0     138.267 132.192 148.169  0.00  0.00    -0.239 OA
BRANCH  25  28
ATOM     28  C           0     138.214 129.511 147.891  0.00  0.00     0.144 C 
BRANCH  28  29
ATOM     29  C           0     136.803 129.016 147.565  0.00  0.00     0.142 C 
BRANCH  29  30
ATOM     30  N           0     136.049 128.839 148.809  0.00  0.00    -0.359 N 
ATOM     31  C           0     134.701 128.825 148.783  0.00  0.00     0.226 C 
ATOM     32  O           0     134.113 128.960 147.730  0.00  0.00    -0.273 OA
ATOM     33  H           0     136.519 128.732 149.650  0.00  0.00     0.162 HD
BRANCH  31  34
ATOM     34  C           0     133.925 128.644 150.062  0.00  0.00     0.182 C 
ATOM     35  I           0     131.903 129.358 149.785  0.00  0.00    -0.080 I 
ENDBRANCH  31  34
ENDBRANCH  29  30
ENDBRANCH  28  29
ENDBRANCH  25  28
ENDBRANCH  23  24
ENDBRANCH  22  23
ENDBRANCH   6  22
BRANCH  18  36
ATOM     36  O           0     135.550 133.272 140.917  0.00  0.00    -0.362 OA
ATOM     37  H           0     135.048 134.065 141.147  0.00  0.00     0.213 HD
ENDBRANCH  18  36
BRANCH  18  38
ATOM     38  O           0     137.297 132.318 142.162  0.00  0.00    -0.362 OA
ATOM     39  H           0     137.614 132.485 143.060  0.00  0.00     0.213 HD
ENDBRANCH  18  38
TORSDOF 9
ENDMDL
MODEL 3
REMARK VINA RESULT:      -7.5      2.208      3.694
REMARK  9 active torsions:
REMARK  status: ('A' for Active; 'I' for Inactive)
REMARK    1  A    between atoms: C_6  and  C_7 
REMARK    2  A    between atoms: C_7  and  O_8 
REMARK    3  A    between atoms: O_8  and  C_9 
REMARK       I    between atoms: C_9  and  N_10 
REMARK    4  A    between atoms: N_10  and  C_11 
REMARK    5  A    between atoms: C_11  and  C_12 
REMARK    6  A    between atoms: C_12  and  N_13 
REMARK       I    between atoms: N_13  and  C_14 
REMARK    7  A    between atoms: C_14  and  C_15 
REMARK    8  A    between atoms: C_30  and  O_31 
REMARK    9  A    between atoms: C_30  and  O_32 
ROOT
ATOM      1  N           0     135.076 136.182 142.961  0.00  0.00    -0.235 N 
ATOM      2  H           0     134.228 136.575 142.702  0.00  0.00     0.174 HD
ATOM      3  H           0     135.901 136.676 142.826  0.00  0.00     0.174 HD
ATOM      4  C           0     135.108 134.994 143.496  0.00  0.00     0.672 C 
ATOM      5  N           0     133.960 134.253 143.715  0.00  0.00    -0.218 N 
ATOM      6  C           0     134.064 132.797 143.707  0.00  0.00     0.151 C 
ATOM      7  C           0     135.165 132.284 144.614  0.00  0.00     0.180 C 
ATOM      8  N           0     134.707 132.349 146.019  0.00  0.00    -0.216 N 
ATOM      9  C           0     135.771 132.763 146.783  0.00  0.00     0.670 C 
ATOM     10  N           0     135.857 132.592 148.072  0.00  0.00    -0.235 N 
ATOM     11  H           0     135.139 132.149 148.551  0.00  0.00     0.174 HD
ATOM     12  H           0     136.638 132.908 148.552  0.00  0.00     0.174 HD
ATOM     13  C           0     136.426 133.134 144.602  0.00  0.00     0.217 C 
ATOM     14  N           0     136.733 133.378 146.020  0.00  0.00    -0.191 N 
ATOM     15  N           0     136.282 134.396 143.873  0.00  0.00    -0.183 N 
ATOM     16  C           0     137.658 134.840 143.587  0.00  0.00     0.150 C 
ATOM     17  C           0     138.421 133.537 143.253  0.00  0.00     0.093 C 
ATOM     18  C           0     137.603 132.407 143.930  0.00  0.00     0.209 C 
ATOM     19  H           0     133.107 134.690 143.869  0.00  0.00     0.178 HD
ATOM     20  H           0     133.818 132.138 146.341  0.00  0.00     0.178 HD
ATOM     21  H           0     137.488 133.884 146.359  0.00  0.00     0.180 HD
ENDROOT
BRANCH   6  22
ATOM     22  C           0     134.346 132.330 142.277  0.00  0.00     0.208 C 
BRANCH  22  23
ATOM     23  O           0     133.100 132.255 141.537  0.00  0.00    -0.302 OA
BRANCH  23  24
ATOM     24  C           0     132.702 133.295 140.781  0.00  0.00     0.360 C 
ATOM     25  N           0     133.612 134.166 140.301  0.00  0.00    -0.335 N 
ATOM     26  H           0     134.553 134.044 140.501  0.00  0.00     0.164 HD
ATOM     27  O           0     131.524 133.448 140.530  0.00  0.00    -0.239 OA
BRANCH  25  28
ATOM     28  C           0     133.179 135.298 139.478  0.00  0.00     0.144 C 
BRANCH  28  29
ATOM     29  C           0     133.738 135.141 138.061  0.00  0.00     0.142 C 
BRANCH  29  30
ATOM     30  N           0     132.680 135.421 137.086  0.00  0.00    -0.359 N 
ATOM     31  C           0     132.999 135.666 135.799  0.00  0.00     0.226 C 
ATOM     32  O           0     134.160 135.654 135.449  0.00  0.00    -0.273 OA
ATOM     33  H           0     131.752 135.430 137.366  0.00  0.00     0.162 HD
BRANCH  31  34
ATOM     34  C           0     131.911 135.954 134.797  0.00  0.00     0.182 C 
ATOM     35  I           0     130.937 134.105 134.241  0.00  0.00    -0.080 I 
ENDBRANCH  31  34
ENDBRANCH  29  30
ENDBRANCH  28  29
ENDBRANCH  25  28
ENDBRANCH  23  24
ENDBRANCH  22  23
ENDBRANCH   6  22
BRANCH  18  36
ATOM     36  O           0     138.400 131.730 144.905  0.00  0.00    -0.362 OA
ATOM     37  H           0     137.931 131.802 145.747  0.00  0.00     0.213 HD
ENDBRANCH  18  36
BRANCH  18  38
ATOM     38  O           0     137.123 131.484 142.950  0.00  0.00    -0.362 OA
ATOM     39  H           0     137.209 130.601 143.331  0.00  0.00     0.213 HD
ENDBRANCH  18  38
TORSDOF 9
ENDMDL
MODEL 4
REMARK VINA RESULT:      -7.5      4.210      7.794
REMARK  9 active torsions:
REMARK  status: ('A' for Active; 'I' for Inactive)
REMARK    1  A    between atoms: C_6  and  C_7 
REMARK    2  A    between atoms: C_7  and  O_8 
REMARK    3  A    between atoms: O_8  and  C_9 
REMARK       I    between atoms: C_9  and  N_10 
REMARK    4  A    between atoms: N_10  and  C_11 
REMARK    5  A    between atoms: C_11  and  C_12 
REMARK    6  A    between atoms: C_12  and  N_13 
REMARK       I    between atoms: N_13  and  C_14 
REMARK    7  A    between atoms: C_14  and  C_15 
REMARK    8  A    between atoms: C_30  and  O_31 
REMARK    9  A    between atoms: C_30  and  O_32 
ROOT
ATOM      1  N           0     134.746 131.825 146.587  0.00  0.00    -0.235 N 
ATOM      2  H           0     134.983 131.868 147.527  0.00  0.00     0.174 HD
ATOM      3  H           0     134.062 131.206 146.287  0.00  0.00     0.174 HD
ATOM      4  C           0     135.343 132.604 145.729  0.00  0.00     0.672 C 
ATOM      5  N           0     136.320 133.507 146.108  0.00  0.00    -0.218 N 
ATOM      6  C           0     137.345 133.868 145.133  0.00  0.00     0.151 C 
ATOM      7  C           0     136.761 134.300 143.802  0.00  0.00     0.180 C 
ATOM      8  N           0     136.242 135.679 143.923  0.00  0.00    -0.216 N 
ATOM      9  C           0     135.064 135.742 143.220  0.00  0.00     0.670 C 
ATOM     10  N           0     134.519 136.850 142.802  0.00  0.00    -0.235 N 
ATOM     11  H           0     134.948 137.701 142.986  0.00  0.00     0.174 HD
ATOM     12  H           0     133.684 136.824 142.308  0.00  0.00     0.174 HD
ATOM     13  C           0     135.549 133.491 143.364  0.00  0.00     0.217 C 
ATOM     14  N           0     134.533 134.494 143.009  0.00  0.00    -0.191 N 
ATOM     15  N           0     135.046 132.577 144.391  0.00  0.00    -0.183 N 
ATOM     16  C           0     134.213 131.599 143.668  0.00  0.00     0.150 C 
ATOM     17  C           0     134.975 131.348 142.346  0.00  0.00     0.093 C 
ATOM     18  C           0     135.859 132.606 142.145  0.00  0.00     0.209 C 
ATOM     19  H           0     136.324 133.892 146.999  0.00  0.00     0.178 HD
ATOM     20  H           0     136.658 136.406 144.411  0.00  0.00     0.178 HD
ATOM     21  H           0     133.640 134.306 142.679  0.00  0.00     0.180 HD
ENDROOT
BRANCH   6  22
ATOM     22  C           0     138.255 132.659 144.903  0.00  0.00     0.208 C 
BRANCH  22  23
ATOM     23  O           0     139.580 132.944 145.421  0.00  0.00    -0.302 OA
BRANCH  23  24
ATOM     24  C           0     140.066 132.232 146.455  0.00  0.00     0.360 C 
ATOM     25  N           0     140.141 132.789 147.680  0.00  0.00    -0.335 N 
ATOM     26  H           0     139.846 133.702 147.817  0.00  0.00     0.164 HD
ATOM     27  O           0     140.436 131.088 146.285  0.00  0.00    -0.239 OA
BRANCH  25  28
ATOM     28  C           0     140.669 132.013 148.806  0.00  0.00     0.144 C 
BRANCH  28  29
ATOM     29  C           0     139.512 131.554 149.696  0.00  0.00     0.142 C 
BRANCH  29  30
ATOM     30  N           0     138.924 130.332 149.141  0.00  0.00    -0.359 N 
ATOM     31  C           0     137.741 130.387 148.495  0.00  0.00     0.226 C 
ATOM     32  O           0     137.165 131.447 148.375  0.00  0.00    -0.273 OA
ATOM     33  H           0     139.385 129.485 149.237  0.00  0.00     0.162 HD
BRANCH  31  34
ATOM     34  C           0     137.137 129.130 147.925  0.00  0.00     0.182 C 
ATOM     35  I           0     135.355 128.619 149.037  0.00  0.00    -0.080 I 
ENDBRANCH  31  34
ENDBRANCH  29  30
ENDBRANCH  28  29
ENDBRANCH  25  28
ENDBRANCH  23  24
ENDBRANCH  22  23
ENDBRANCH   6  22
BRANCH  18  36
ATOM     36  O           0     135.505 133.276 140.933  0.00  0.00    -0.362 OA
ATOM     37  H           0     134.849 133.946 141.166  0.00  0.00     0.213 HD
ENDBRANCH  18  36
BRANCH  18  38
ATOM     38  O           0     137.242 132.245 142.131  0.00  0.00    -0.362 OA
ATOM     39  H           0     137.291 131.314 142.385  0.00  0.00     0.213 HD
ENDBRANCH  18  38
TORSDOF 9
ENDMDL
MODEL 5
REMARK VINA RESULT:      -7.4      2.093      2.893
REMARK  9 active torsions:
REMARK  status: ('A' for Active; 'I' for Inactive)
REMARK    1  A    between atoms: C_6  and  C_7 
REMARK    2  A    between atoms: C_7  and  O_8 
REMARK    3  A    between atoms: O_8  and  C_9 
REMARK       I    between atoms: C_9  and  N_10 
REMARK    4  A    between atoms: N_10  and  C_11 
REMARK    5  A    between atoms: C_11  and  C_12 
REMARK    6  A    between atoms: C_12  and  N_13 
REMARK       I    between atoms: N_13  and  C_14 
REMARK    7  A    between atoms: C_14  and  C_15 
REMARK    8  A    between atoms: C_30  and  O_31 
REMARK    9  A    between atoms: C_30  and  O_32 
ROOT
ATOM      1  N           0     134.479 130.564 144.428  0.00  0.00    -0.235 N 
ATOM      2  H           0     134.129 130.397 143.538  0.00  0.00     0.174 HD
ATOM      3  H           0     134.168 130.034 145.179  0.00  0.00     0.174 HD
ATOM      4  C           0     135.371 131.496 144.613  0.00  0.00     0.672 C 
ATOM      5  N           0     135.851 132.274 143.574  0.00  0.00    -0.218 N 
ATOM      6  C           0     136.316 133.624 143.877  0.00  0.00     0.151 C 
ATOM      7  C           0     137.311 133.657 145.021  0.00  0.00     0.180 C 
ATOM      8  N           0     138.629 133.200 144.532  0.00  0.00    -0.216 N 
ATOM      9  C           0     139.187 132.417 145.513  0.00  0.00     0.670 C 
ATOM     10  N           0     140.459 132.145 145.597  0.00  0.00    -0.235 N 
ATOM     11  H           0     141.076 132.500 144.938  0.00  0.00     0.174 HD
ATOM     12  H           0     140.788 131.584 146.318  0.00  0.00     0.174 HD
ATOM     13  C           0     136.988 132.693 146.153  0.00  0.00     0.217 C 
ATOM     14  N           0     138.240 131.960 146.396  0.00  0.00    -0.191 N 
ATOM     15  N           0     135.891 131.772 145.850  0.00  0.00    -0.183 N 
ATOM     16  C           0     135.439 131.262 147.157  0.00  0.00     0.150 C 
ATOM     17  C           0     135.528 132.485 148.099  0.00  0.00     0.093 C 
ATOM     18  C           0     136.558 133.433 147.432  0.00  0.00     0.209 C 
ATOM     19  H           0     135.877 131.931 142.666  0.00  0.00     0.178 HD
ATOM     20  H           0     139.027 133.413 143.674  0.00  0.00     0.178 HD
ATOM     21  H           0     138.375 131.273 147.067  0.00  0.00     0.180 HD
ENDROOT
BRANCH   6  22
ATOM     22  C           0     135.110 134.490 144.249  0.00  0.00     0.208 C 
BRANCH  22  23
ATOM     23  O           0     134.699 135.269 143.096  0.00  0.00    -0.302 OA
BRANCH  23  24
ATOM     24  C           0     133.975 134.694 142.118  0.00  0.00     0.360 C 
ATOM     25  N           0     133.854 135.303 140.921  0.00  0.00    -0.335 N 
ATOM     26  H           0     134.288 136.156 140.765  0.00  0.00     0.164 HD
ATOM     27  O           0     133.431 133.625 142.312  0.00  0.00    -0.239 OA
BRANCH  25  28
ATOM     28  C           0     133.067 134.676 139.856  0.00  0.00     0.144 C 
BRANCH  28  29
ATOM     29  C           0     133.642 135.075 138.495  0.00  0.00     0.142 C 
BRANCH  29  30
ATOM     30  N           0     132.546 135.399 137.578  0.00  0.00    -0.359 N 
ATOM     31  C           0     132.633 135.058 136.277  0.00  0.00     0.226 C 
ATOM     32  O           0     133.618 134.482 135.866  0.00  0.00    -0.273 OA
ATOM     33  H           0     131.758 135.859 137.908  0.00  0.00     0.162 HD
BRANCH  31  34
ATOM     34  C           0     131.505 135.392 135.335  0.00  0.00     0.182 C 
ATOM     35  I           0     130.961 133.627 134.210  0.00  0.00    -0.080 I 
ENDBRANCH  31  34
ENDBRANCH  29  30
ENDBRANCH  28  29
ENDBRANCH  25  28
ENDBRANCH  23  24
ENDBRANCH  22  23
ENDBRANCH   6  22
BRANCH  18  36
ATOM     36  O           0     137.679 133.638 148.295  0.00  0.00    -0.362 OA
ATOM     37  H           0     137.806 132.816 148.788  0.00  0.00     0.213 HD
ENDBRANCH  18  36
BRANCH  18  38
ATOM     38  O           0     135.946 134.681 147.103  0.00  0.00    -0.362 OA
ATOM     39  H           0     135.345 134.513 146.364  0.00  0.00     0.213 HD
ENDBRANCH  18  38
TORSDOF 9
ENDMDL
MODEL 6
REMARK VINA RESULT:      -7.4      4.302     11.317
REMARK  9 active torsions:
REMARK  status: ('A' for Active; 'I' for Inactive)
REMARK    1  A    between atoms: C_6  and  C_7 
REMARK    2  A    between atoms: C_7  and  O_8 
REMARK    3  A    between atoms: O_8  and  C_9 
REMARK       I    between atoms: C_9  and  N_10 
REMARK    4  A    between atoms: N_10  and  C_11 
REMARK    5  A    between atoms: C_11  and  C_12 
REMARK    6  A    between atoms: C_12  and  N_13 
REMARK       I    between atoms: N_13  and  C_14 
REMARK    7  A    between atoms: C_14  and  C_15 
REMARK    8  A    between atoms: C_30  and  O_31 
REMARK    9  A    between atoms: C_30  and  O_32 
ROOT
ATOM      1  N           0     131.420 132.091 135.148  0.00  0.00    -0.235 N 
ATOM      2  H           0     130.829 131.759 135.841  0.00  0.00     0.174 HD
ATOM      3  H           0     131.789 131.480 134.490  0.00  0.00     0.174 HD
ATOM      4  C           0     131.714 133.360 135.095  0.00  0.00     0.672 C 
ATOM      5  N           0     131.209 134.272 136.005  0.00  0.00    -0.218 N 
ATOM      6  C           0     131.998 135.464 136.301  0.00  0.00     0.151 C 
ATOM      7  C           0     132.434 136.202 135.050  0.00  0.00     0.180 C 
ATOM      8  N           0     131.288 136.966 134.511  0.00  0.00    -0.216 N 
ATOM      9  C           0     131.327 136.861 133.142  0.00  0.00     0.670 C 
ATOM     10  N           0     130.716 137.676 132.328  0.00  0.00    -0.235 N 
ATOM     11  H           0     130.192 138.411 132.681  0.00  0.00     0.174 HD
ATOM     12  H           0     130.786 137.545 131.369  0.00  0.00     0.174 HD
ATOM     13  C           0     132.838 135.292 133.901  0.00  0.00     0.217 C 
ATOM     14  N           0     132.091 135.794 132.738  0.00  0.00    -0.191 N 
ATOM     15  N           0     132.548 133.876 134.138  0.00  0.00    -0.183 N 
ATOM     16  C           0     133.386 133.140 133.174  0.00  0.00     0.150 C 
ATOM     17  C           0     134.716 133.929 133.140  0.00  0.00     0.093 C 
ATOM     18  C           0     134.349 135.357 133.620  0.00  0.00     0.209 C 
ATOM     19  H           0     130.352 134.123 136.436  0.00  0.00     0.178 HD
ATOM     20  H           0     130.629 137.451 135.031  0.00  0.00     0.178 HD
ATOM     21  H           0     132.132 135.436 131.837  0.00  0.00     0.180 HD
ENDROOT
BRANCH   6  22
ATOM     22  C           0     133.244 135.050 137.088  0.00  0.00     0.208 C 
BRANCH  22  23
ATOM     23  O           0     133.108 135.476 138.469  0.00  0.00    -0.302 OA
BRANCH  23  24
ATOM     24  C           0     133.082 134.562 139.456  0.00  0.00     0.360 C 
ATOM     25  N           0     133.939 134.664 140.492  0.00  0.00    -0.335 N 
ATOM     26  H           0     134.575 135.395 140.525  0.00  0.00     0.164 HD
ATOM     27  O           0     132.286 133.646 139.415  0.00  0.00    -0.239 OA
BRANCH  25  28
ATOM     28  C           0     133.909 133.669 141.567  0.00  0.00     0.144 C 
BRANCH  28  29
ATOM     29  C           0     135.169 132.802 141.494  0.00  0.00     0.142 C 
BRANCH  29  30
ATOM     30  N           0     136.280 133.500 142.145  0.00  0.00    -0.359 N 
ATOM     31  C           0     137.118 132.823 142.956  0.00  0.00     0.226 C 
ATOM     32  O           0     136.951 131.637 143.146  0.00  0.00    -0.273 OA
ATOM     33  H           0     136.413 134.448 141.992  0.00  0.00     0.162 HD
BRANCH  31  34
ATOM     34  C           0     138.261 133.542 143.626  0.00  0.00     0.182 C 
ATOM     35  I           0     138.798 132.501 145.444  0.00  0.00    -0.080 I 
ENDBRANCH  31  34
ENDBRANCH  29  30
ENDBRANCH  28  29
ENDBRANCH  25  28
ENDBRANCH  23  24
ENDBRANCH  22  23
ENDBRANCH   6  22
BRANCH  18  36
ATOM     36  O           0     134.630 136.314 132.596  0.00  0.00    -0.362 OA
ATOM     37  H           0     135.591 136.350 132.503  0.00  0.00     0.213 HD
ENDBRANCH  18  36
BRANCH  18  38
ATOM     38  O           0     135.064 135.679 134.814  0.00  0.00    -0.362 OA
ATOM     39  H           0     136.002 135.546 134.624  0.00  0.00     0.213 HD
ENDBRANCH  18  38
TORSDOF 9
ENDMDL
MODEL 7
REMARK VINA RESULT:      -7.2      3.583      5.457
REMARK  9 active torsions:
REMARK  status: ('A' for Active; 'I' for Inactive)
REMARK    1  A    between atoms: C_6  and  C_7 
REMARK    2  A    between atoms: C_7  and  O_8 
REMARK    3  A    between atoms: O_8  and  C_9 
REMARK       I    between atoms: C_9  and  N_10 
REMARK    4  A    between atoms: N_10  and  C_11 
REMARK    5  A    between atoms: C_11  and  C_12 
REMARK    6  A    between atoms: C_12  and  N_13 
REMARK       I    between atoms: N_13  and  C_14 
REMARK    7  A    between atoms: C_14  and  C_15 
REMARK    8  A    between atoms: C_30  and  O_31 
REMARK    9  A    between atoms: C_30  and  O_32 
ROOT
ATOM      1  N           0     134.132 132.437 150.231  0.00  0.00    -0.235 N 
ATOM      2  H           0     133.678 133.258 149.985  0.00  0.00     0.174 HD
ATOM      3  H           0     134.299 132.235 151.165  0.00  0.00     0.174 HD
ATOM      4  C           0     134.512 131.601 149.306  0.00  0.00     0.672 C 
ATOM      5  N           0     134.293 131.840 147.961  0.00  0.00    -0.218 N 
ATOM      6  C           0     135.223 131.264 146.994  0.00  0.00     0.151 C 
ATOM      7  C           0     135.439 129.778 147.205  0.00  0.00     0.180 C 
ATOM      8  N           0     134.272 129.038 146.680  0.00  0.00    -0.216 N 
ATOM      9  C           0     134.007 128.010 147.552  0.00  0.00     0.670 C 
ATOM     10  N           0     133.305 126.955 147.248  0.00  0.00    -0.235 N 
ATOM     11  H           0     132.931 126.861 146.358  0.00  0.00     0.174 HD
ATOM     12  H           0     133.155 126.264 147.913  0.00  0.00     0.174 HD
ATOM     13  C           0     135.510 129.361 148.665  0.00  0.00     0.217 C 
ATOM     14  N           0     134.574 128.232 148.783  0.00  0.00    -0.191 N 
ATOM     15  N           0     135.161 130.430 149.603  0.00  0.00    -0.183 N 
ATOM     16  C           0     135.707 130.003 150.903  0.00  0.00     0.150 C 
ATOM     17  C           0     137.059 129.338 150.552  0.00  0.00     0.093 C 
ATOM     18  C           0     136.925 128.912 149.068  0.00  0.00     0.209 C 
ATOM     19  H           0     133.539 132.377 147.667  0.00  0.00     0.178 HD
ATOM     20  H           0     133.783 129.241 145.868  0.00  0.00     0.178 HD
ATOM     21  H           0     134.390 127.728 149.591  0.00  0.00     0.180 HD
ENDROOT
BRANCH   6  22
ATOM     22  C           0     136.570 131.980 147.118  0.00  0.00     0.208 C 
BRANCH  22  23
ATOM     23  O           0     137.536 131.350 146.238  0.00  0.00    -0.302 OA
BRANCH  23  24
ATOM     24  C           0     137.727 131.829 144.994  0.00  0.00     0.360 C 
ATOM     25  N           0     138.568 132.863 144.792  0.00  0.00    -0.335 N 
ATOM     26  H           0     139.034 133.263 145.543  0.00  0.00     0.164 HD
ATOM     27  O           0     137.144 131.329 144.054  0.00  0.00    -0.239 OA
BRANCH  25  28
ATOM     28  C           0     138.776 133.384 143.439  0.00  0.00     0.144 C 
BRANCH  28  29
ATOM     29  C           0     138.180 134.790 143.336  0.00  0.00     0.142 C 
BRANCH  29  30
ATOM     30  N           0     136.855 134.714 142.716  0.00  0.00    -0.359 N 
ATOM     31  C           0     135.751 134.672 143.489  0.00  0.00     0.226 C 
ATOM     32  O           0     135.856 134.696 144.696  0.00  0.00    -0.273 OA
ATOM     33  H           0     136.772 134.695 141.750  0.00  0.00     0.162 HD
BRANCH  31  34
ATOM     34  C           0     134.388 134.593 142.851  0.00  0.00     0.182 C 
ATOM     35  I           0     134.037 132.579 142.148  0.00  0.00    -0.080 I 
ENDBRANCH  31  34
ENDBRANCH  29  30
ENDBRANCH  28  29
ENDBRANCH  25  28
ENDBRANCH  23  24
ENDBRANCH  22  23
ENDBRANCH   6  22
BRANCH  18  36
ATOM     36  O           0     137.057 127.494 148.943  0.00  0.00    -0.362 OA
ATOM     37  H           0     137.569 127.331 148.139  0.00  0.00     0.213 HD
ENDBRANCH  18  36
BRANCH  18  38
ATOM     38  O           0     137.904 129.577 148.268  0.00  0.00    -0.362 OA
ATOM     39  H           0     137.657 129.434 147.345  0.00  0.00     0.213 HD
ENDBRANCH  18  38
TORSDOF 9
ENDMDL
MODEL 8
REMARK VINA RESULT:      -7.2      4.931     12.205
REMARK  9 active torsions:
REMARK  status: ('A' for Active; 'I' for Inactive)
REMARK    1  A    between atoms: C_6  and  C_7 
REMARK    2  A    between atoms: C_7  and  O_8 
REMARK    3  A    between atoms: O_8  and  C_9 
REMARK       I    between atoms: C_9  and  N_10 
REMARK    4  A    between atoms: N_10  and  C_11 
REMARK    5  A    between atoms: C_11  and  C_12 
REMARK    6  A    between atoms: C_12  and  N_13 
REMARK       I    between atoms: N_13  and  C_14 
REMARK    7  A    between atoms: C_14  and  C_15 
REMARK    8  A    between atoms: C_30  and  O_31 
REMARK    9  A    between atoms: C_30  and  O_32 
ROOT
ATOM      1  N           0     133.729 134.259 132.161  0.00  0.00    -0.235 N 
ATOM      2  H           0     134.606 134.350 132.566  0.00  0.00     0.174 HD
ATOM      3  H           0     133.594 134.513 131.235  0.00  0.00     0.174 HD
ATOM      4  C           0     132.734 133.790 132.861  0.00  0.00     0.672 C 
ATOM      5  N           0     132.878 133.408 134.183  0.00  0.00    -0.218 N 
ATOM      6  C           0     131.714 133.498 135.060  0.00  0.00     0.151 C 
ATOM      7  C           0     130.490 132.819 134.478  0.00  0.00     0.180 C 
ATOM      8  N           0     130.625 131.355 134.634  0.00  0.00    -0.216 N 
ATOM      9  C           0     130.146 130.769 133.488  0.00  0.00     0.670 C 
ATOM     10  N           0     129.773 129.523 133.404  0.00  0.00    -0.235 N 
ATOM     11  H           0     129.827 128.947 134.182  0.00  0.00     0.174 HD
ATOM     12  H           0     129.441 129.172 132.562  0.00  0.00     0.174 HD
ATOM     13  C           0     130.326 133.012 132.978  0.00  0.00     0.217 C 
ATOM     14  N           0     130.106 131.659 132.444  0.00  0.00    -0.191 N 
ATOM     15  N           0     131.477 133.649 132.335  0.00  0.00    -0.183 N 
ATOM     16  C           0     130.973 134.149 131.043  0.00  0.00     0.150 C 
ATOM     17  C           0     129.551 134.667 131.360  0.00  0.00     0.093 C 
ATOM     18  C           0     129.122 133.909 132.643  0.00  0.00     0.209 C 
ATOM     19  H           0     133.731 133.089 134.519  0.00  0.00     0.178 HD
ATOM     20  H           0     130.988 130.893 135.405  0.00  0.00     0.178 HD
ATOM     21  H           0     129.955 131.434 131.512  0.00  0.00     0.180 HD
ENDROOT
BRANCH   6  22
ATOM     22  C           0     131.390 134.974 135.301  0.00  0.00     0.208 C 
BRANCH  22  23
ATOM     23  O           0     132.615 135.699 135.586  0.00  0.00    -0.302 OA
BRANCH  23  24
ATOM     24  C           0     133.383 135.338 136.631  0.00  0.00     0.360 C 
ATOM     25  N           0     132.882 135.381 137.882  0.00  0.00    -0.335 N 
ATOM     26  H           0     131.969 135.672 138.029  0.00  0.00     0.164 HD
ATOM     27  O           0     134.527 134.973 136.447  0.00  0.00    -0.239 OA
BRANCH  25  28
ATOM     28  C           0     133.719 134.987 139.019  0.00  0.00     0.144 C 
BRANCH  28  29
ATOM     29  C           0     132.862 134.247 140.049  0.00  0.00     0.142 C 
BRANCH  29  30
ATOM     30  N           0     133.605 134.129 141.307  0.00  0.00    -0.359 N 
ATOM     31  C           0     133.571 132.976 142.004  0.00  0.00     0.226 C 
ATOM     32  O           0     132.924 132.037 141.590  0.00  0.00    -0.273 OA
ATOM     33  H           0     134.122 134.880 141.637  0.00  0.00     0.162 HD
BRANCH  31  34
ATOM     34  C           0     134.334 132.855 143.297  0.00  0.00     0.182 C 
ATOM     35  I           0     135.360 134.714 143.703  0.00  0.00    -0.080 I 
ENDBRANCH  31  34
ENDBRANCH  29  30
ENDBRANCH  28  29
ENDBRANCH  25  28
ENDBRANCH  23  24
ENDBRANCH  22  23
ENDBRANCH   6  22
BRANCH  18  36
ATOM     36  O           0     127.959 133.118 132.389  0.00  0.00    -0.362 OA
ATOM     37  H           0     127.742 133.232 131.454  0.00  0.00     0.213 HD
ENDBRANCH  18  36
BRANCH  18  38
ATOM     38  O           0     128.877 134.831 133.706  0.00  0.00    -0.362 OA
ATOM     39  H           0     128.204 134.431 134.274  0.00  0.00     0.213 HD
ENDBRANCH  18  38
TORSDOF 9
ENDMDL
MODEL 9
REMARK VINA RESULT:      -7.1      1.800      3.176
REMARK  9 active torsions:
REMARK  status: ('A' for Active; 'I' for Inactive)
REMARK    1  A    between atoms: C_6  and  C_7 
REMARK    2  A    between atoms: C_7  and  O_8 
REMARK    3  A    between atoms: O_8  and  C_9 
REMARK       I    between atoms: C_9  and  N_10 
REMARK    4  A    between atoms: N_10  and  C_11 
REMARK    5  A    between atoms: C_11  and  C_12 
REMARK    6  A    between atoms: C_12  and  N_13 
REMARK       I    between atoms: N_13  and  C_14 
REMARK    7  A    between atoms: C_14  and  C_15 
REMARK    8  A    between atoms: C_30  and  O_31 
REMARK    9  A    between atoms: C_30  and  O_32 
ROOT
ATOM      1  N           0     136.279 134.954 147.987  0.00  0.00    -0.235 N 
ATOM      2  H           0     135.549 135.592 148.030  0.00  0.00     0.174 HD
ATOM      3  H           0     137.036 135.043 148.587  0.00  0.00     0.174 HD
ATOM      4  C           0     136.240 133.975 147.128  0.00  0.00     0.672 C 
ATOM      5  N           0     135.180 133.803 146.255  0.00  0.00    -0.218 N 
ATOM      6  C           0     135.437 133.150 144.975  0.00  0.00     0.151 C 
ATOM      7  C           0     136.173 131.833 145.127  0.00  0.00     0.180 C 
ATOM      8  N           0     135.224 130.796 145.584  0.00  0.00    -0.216 N 
ATOM      9  C           0     135.878 130.013 146.504  0.00  0.00     0.670 C 
ATOM     10  N           0     135.499 128.813 146.845  0.00  0.00    -0.235 N 
ATOM     11  H           0     134.708 128.422 146.444  0.00  0.00     0.174 HD
ATOM     12  H           0     136.008 128.312 147.503  0.00  0.00     0.174 HD
ATOM     13  C           0     137.249 131.843 146.201  0.00  0.00     0.217 C 
ATOM     14  N           0     136.981 130.649 147.017  0.00  0.00    -0.191 N 
ATOM     15  N           0     137.248 133.053 147.027  0.00  0.00    -0.183 N 
ATOM     16  C           0     138.576 133.088 147.667  0.00  0.00     0.150 C 
ATOM     17  C           0     139.545 132.588 146.570  0.00  0.00     0.093 C 
ATOM     18  C           0     138.662 131.760 145.600  0.00  0.00     0.209 C 
ATOM     19  H           0     134.288 134.108 146.488  0.00  0.00     0.178 HD
ATOM     20  H           0     134.307 130.688 145.289  0.00  0.00     0.178 HD
ATOM     21  H           0     137.497 130.358 147.785  0.00  0.00     0.180 HD
ENDROOT
BRANCH   6  22
ATOM     22  C           0     136.277 134.086 144.103  0.00  0.00     0.208 C 
BRANCH  22  23
ATOM     23  O           0     136.422 133.513 142.777  0.00  0.00    -0.302 OA
BRANCH  23  24
ATOM     24  C           0     135.330 133.230 142.043  0.00  0.00     0.360 C 
ATOM     25  N           0     134.626 134.226 141.469  0.00  0.00    -0.335 N 
ATOM     26  H           0     134.906 135.147 141.586  0.00  0.00     0.164 HD
ATOM     27  O           0     134.979 132.076 141.896  0.00  0.00    -0.239 OA
BRANCH  25  28
ATOM     28  C           0     133.438 133.917 140.670  0.00  0.00     0.144 C 
BRANCH  28  29
ATOM     29  C           0     133.034 135.151 139.859  0.00  0.00     0.142 C 
BRANCH  29  30
ATOM     30  N           0     134.055 135.424 138.844  0.00  0.00    -0.359 N 
ATOM     31  C           0     133.815 135.131 137.551  0.00  0.00     0.226 C 
ATOM     32  O           0     132.754 134.641 137.227  0.00  0.00    -0.273 OA
ATOM     33  H           0     134.904 135.816 139.104  0.00  0.00     0.162 HD
BRANCH  31  34
ATOM     34  C           0     134.865 135.412 136.508  0.00  0.00     0.182 C 
ATOM     35  I           0     134.098 134.889 134.555  0.00  0.00    -0.080 I 
ENDBRANCH  31  34
ENDBRANCH  29  30
ENDBRANCH  28  29
ENDBRANCH  25  28
ENDBRANCH  23  24
ENDBRANCH  22  23
ENDBRANCH   6  22
BRANCH  18  36
ATOM     36  O           0     139.111 130.404 145.554  0.00  0.00    -0.362 OA
ATOM     37  H           0     138.587 129.914 146.202  0.00  0.00     0.213 HD
ENDBRANCH  18  36
BRANCH  18  38
ATOM     38  O           0     138.682 132.338 144.294  0.00  0.00    -0.362 OA
ATOM     39  H           0     139.570 132.197 143.939  0.00  0.00     0.213 HD
ENDBRANCH  18  38
TORSDOF 9
ENDMDL
