# created with PyMOL 2.3.4
@<TRIPOS>MOLECULE
ligand_out_0001
39 41 1                 
SMALL
USER_CHARGES
@<TRIPOS>ATOM
1	   N	139.529	130.533	145.974	N.3	1	UNK0	-0.235	
2	   N	138.513	132.420	145.003	N.3	1	UNK0	-0.218	
3	   N	136.550	134.436	146.259	N.3	1	UNK0	-0.216	
4	   N	136.180	135.256	148.447	N.3	1	UNK0	-0.235	
5	   N	136.334	132.946	147.961	N.3	1	UNK0	-0.191	
6	   N	137.393	131.209	146.651	N.3	1	UNK0	-0.183	
7	   N	134.841	133.646	140.959	N.pl3	1	UNK0	-0.335	
8	   N	132.693	135.313	138.704	N.pl3	1	UNK0	-0.359	
9	   C	138.519	131.353	145.884	C.3	1	UNK0	0.672	
10	   C	137.228	132.890	144.495	C.3	1	UNK0	0.151	
11	   C	136.223	133.153	145.599	C.3	1	UNK0	0.180	
12	   C	136.346	134.272	147.607	C.3	1	UNK0	0.670	
13	   C	136.265	132.139	146.732	C.3	1	UNK0	0.217	
14	   C	137.026	130.075	147.518	C.3	1	UNK0	0.150	
15	   C	135.511	129.882	147.277	C.3	1	UNK0	0.093	
16	   C	135.008	131.254	146.758	C.3	1	UNK0	0.209	
17	   C	136.654	131.833	143.548	C.2	1	UNK0	0.208	
18	   C	135.086	132.777	141.961	C.2	1	UNK0	0.360	
19	   C	133.461	134.009	140.626	C.3	1	UNK0	0.144	
20	   C	133.443	135.387	139.961	C.3	1	UNK0	0.142	
21	   C	133.345	135.116	137.541	C.2	1	UNK0	0.226	
22	   C	132.574	135.039	136.249	C.3	1	UNK0	0.182	
23	   O	136.353	132.443	142.266	O.2	1	UNK0	-0.302	
24	   O	134.162	132.296	142.586	O.co2	1	UNK0	-0.239	
25	   O	134.553	135.001	137.535	O.2	1	UNK0	-0.273	
26	   O	134.029	131.795	147.648	O.2	1	UNK0	-0.362	
27	   O	134.466	131.120	145.442	O.2	1	UNK0	-0.362	
28	   I	133.957	134.916	134.591	 I	1	UNK0	-0.080	
29	   H	140.310	130.662	145.413	 H	1	UNK0	0.174	
30	   H	139.502	129.798	146.606	 H	1	UNK0	0.174	
31	   H	136.200	136.172	148.131	 H	1	UNK0	0.174	
32	   H	136.039	135.070	149.389	 H	1	UNK0	0.174	
33	   H	139.342	132.845	144.730	 H	1	UNK0	0.178	
34	   H	136.855	135.244	145.819	 H	1	UNK0	0.178	
35	   H	136.364	132.600	148.866	 H	1	UNK0	0.180	
36	   H	135.577	134.030	140.459	 H	1	UNK0	0.164	
37	   H	131.727	135.405	138.709	 H	1	UNK0	0.162	
38	   H	134.479	132.456	148.190	 H	1	UNK0	0.213	
39	   H	135.086	130.576	144.938	 H	1	UNK0	0.213	
@<TRIPOS>BOND
1 1 9 1
2 1 29 1
3 1 30 1
4 2 10 1
5 2 33 1
6 3 12 1
7 3 34 1
8 4 31 1
9 4 32 1
10 5 35 1
11 6 14 1
12 7 19 1
13 7 36 1
14 8 21 1
15 8 37 1
16 2 9 1
17 6 9 1
18 10 11 1
19 10 17 1
20 3 11 1
21 11 13 1
22 4 12 1
23 5 12 1
24 5 13 1
25 6 13 1
26 13 16 1
27 14 15 1
28 15 16 1
29 16 26 2
30 16 27 2
31 17 23 2
32 7 18 1
33 18 24 2
34 19 20 1
35 8 20 1
36 21 22 1
37 21 25 2
38 22 28 1
39 18 23 2
40 26 38 1
41 27 39 1
@<TRIPOS>SUBSTRUCTURE
1	UNK0	1	GROUP	1 ****	UNK
