# created with PyMOL 2.3.4
@<TRIPOS>MOLECULE
ligand_out_0001
5 4 1                   
SMALL
USER_CHARGES
@<TRIPOS>ATOM
1	   C	133.200	135.030	139.214	C.2	1	UNK0	0.331	
2	   O	132.128	134.275	139.783	O.2	1	UNK0	-0.377	
3	   O	133.424	136.203	139.998	O.2	1	UNK0	-0.377	
4	   H	132.314	134.196	140.728	 H	1	UNK0	0.212	
5	   H	134.074	136.738	139.521	 H	1	UNK0	0.212	
@<TRIPOS>BOND
1 1 2 2
2 1 3 2
3 2 4 1
4 3 5 1
@<TRIPOS>SUBSTRUCTURE
1	UNK0	1	GROUP	1 ****	UNK
