# created with PyMOL 2.3.4
@<TRIPOS>MOLECULE
ligand_out_0001
30 32 1                 
SMALL
USER_CHARGES
@<TRIPOS>ATOM
1	   N	134.732	136.667	143.247	N.3	1	UNK0	-0.235	
2	   N	133.695	134.578	142.936	N.3	1	UNK0	-0.218	
3	   N	134.290	131.877	144.307	N.3	1	UNK0	-0.216	
4	   N	134.582	132.145	146.638	N.3	1	UNK0	-0.235	
5	   N	136.198	132.853	145.062	N.3	1	UNK0	-0.194	
6	   N	135.955	134.687	143.500	N.3	1	UNK0	-0.186	
7	   N	133.538	136.104	139.786	N.pl3	1	UNK0	-0.346	
8	   C	134.795	135.365	143.232	C.3	1	UNK0	0.672	
9	   C	133.923	133.267	142.335	C.3	1	UNK0	0.151	
10	   C	134.934	132.439	143.104	C.3	1	UNK0	0.177	
11	   C	134.997	132.282	145.410	C.3	1	UNK0	0.670	
12	   C	136.105	133.240	143.650	C.3	1	UNK0	0.187	
13	   C	137.314	135.237	143.659	C.3	1	UNK0	0.147	
14	   C	138.228	134.214	142.946	C.3	1	UNK0	0.057	
15	   C	137.422	132.902	142.934	C.2	1	UNK0	0.172	
16	   C	134.430	133.460	140.905	C.2	1	UNK0	0.208	
17	   C	133.383	134.880	139.242	C.2	1	UNK0	0.358	
18	   O	133.315	133.795	140.037	O.2	1	UNK0	-0.302	
19	   O	133.305	134.757	138.037	O.co2	1	UNK0	-0.239	
20	   O	138.116	131.882	143.654	O.2	1	UNK0	-0.391	
21	   H	133.896	137.115	143.047	 H	1	UNK0	0.174	
22	   H	135.522	137.187	143.462	 H	1	UNK0	0.174	
23	   H	133.722	131.733	146.816	 H	1	UNK0	0.174	
24	   H	135.133	132.454	147.374	 H	1	UNK0	0.174	
25	   H	132.796	134.890	143.124	 H	1	UNK0	0.178	
26	   H	133.500	131.316	144.317	 H	1	UNK0	0.178	
27	   H	136.965	132.980	145.642	 H	1	UNK0	0.180	
28	   H	133.600	136.202	140.749	 H	1	UNK0	0.161	
29	   H	133.587	136.886	139.213	 H	1	UNK0	0.161	
30	   H	137.726	131.850	144.538	 H	1	UNK0	0.210	
@<TRIPOS>BOND
1 1 8 1
2 1 21 1
3 1 22 1
4 2 9 1
5 2 25 1
6 3 11 1
7 3 26 1
8 4 23 1
9 4 24 1
10 5 27 1
11 6 13 1
12 7 28 1
13 7 29 1
14 2 8 1
15 6 8 1
16 9 10 1
17 9 16 1
18 3 10 1
19 10 12 1
20 4 11 1
21 5 11 1
22 5 12 1
23 6 12 1
24 12 15 1
25 13 14 1
26 14 15 1
27 15 20 2
28 16 18 2
29 7 17 1
30 17 19 2
31 17 18 2
32 20 30 1
@<TRIPOS>SUBSTRUCTURE
1	UNK0	1	GROUP	1 ****	UNK
