MODEL 1
REMARK VINA RESULT:      -7.6      0.000      0.000
REMARK  4 active torsions:
REMARK  status: ('A' for Active; 'I' for Inactive)
REMARK    1  A    between atoms: C_6  and  C_7 
REMARK    2  A    between atoms: C_7  and  O_8 
REMARK    3  A    between atoms: O_8  and  C_9 
REMARK       I    between atoms: C_9  and  N_10 
REMARK    4  A    between atoms: C_23  and  O_24 
ROOT
ATOM      1  N           0     134.732 136.667 143.247  0.00  0.00    -0.235 N 
ATOM      2  H           0     133.896 137.115 143.047  0.00  0.00     0.174 HD
ATOM      3  H           0     135.522 137.187 143.462  0.00  0.00     0.174 HD
ATOM      4  C           0     134.795 135.365 143.232  0.00  0.00     0.672 C 
ATOM      5  N           0     133.695 134.578 142.936  0.00  0.00    -0.218 N 
ATOM      6  C           0     133.923 133.267 142.335  0.00  0.00     0.151 C 
ATOM      7  C           0     134.934 132.439 143.104  0.00  0.00     0.177 C 
ATOM      8  N           0     134.290 131.877 144.307  0.00  0.00    -0.216 N 
ATOM      9  C           0     134.997 132.282 145.410  0.00  0.00     0.670 C 
ATOM     10  N           0     134.582 132.145 146.638  0.00  0.00    -0.235 N 
ATOM     11  H           0     133.722 131.733 146.816  0.00  0.00     0.174 HD
ATOM     12  H           0     135.133 132.454 147.374  0.00  0.00     0.174 HD
ATOM     13  C           0     136.105 133.240 143.650  0.00  0.00     0.187 C 
ATOM     14  N           0     136.198 132.853 145.062  0.00  0.00    -0.194 N 
ATOM     15  N           0     135.955 134.687 143.500  0.00  0.00    -0.186 N 
ATOM     16  C           0     137.314 135.237 143.659  0.00  0.00     0.147 C 
ATOM     17  C           0     138.228 134.214 142.946  0.00  0.00     0.057 C 
ATOM     18  C           0     137.422 132.902 142.934  0.00  0.00     0.172 C 
ATOM     19  H           0     132.796 134.890 143.124  0.00  0.00     0.178 HD
ATOM     20  H           0     133.500 131.316 144.317  0.00  0.00     0.178 HD
ATOM     21  H           0     136.965 132.980 145.642  0.00  0.00     0.180 HD
ENDROOT
BRANCH   6  22
ATOM     22  C           0     134.430 133.460 140.905  0.00  0.00     0.208 C 
BRANCH  22  23
ATOM     23  O           0     133.315 133.795 140.037  0.00  0.00    -0.302 OA
BRANCH  23  24
ATOM     24  C           0     133.383 134.880 139.242  0.00  0.00     0.358 C 
ATOM     25  N           0     133.538 136.104 139.786  0.00  0.00    -0.346 N 
ATOM     26  H           0     133.600 136.202 140.749  0.00  0.00     0.161 HD
ATOM     27  H           0     133.587 136.886 139.213  0.00  0.00     0.161 HD
ATOM     28  O           0     133.305 134.757 138.037  0.00  0.00    -0.239 OA
ENDBRANCH  23  24
ENDBRANCH  22  23
ENDBRANCH   6  22
BRANCH  18  29
ATOM     29  O           0     138.116 131.882 143.654  0.00  0.00    -0.391 OA
ATOM     30  H           0     137.726 131.850 144.538  0.00  0.00     0.210 HD
ENDBRANCH  18  29
TORSDOF 4
ENDMDL
MODEL 2
REMARK VINA RESULT:      -6.9      2.114      5.818
REMARK  4 active torsions:
REMARK  status: ('A' for Active; 'I' for Inactive)
REMARK    1  A    between atoms: C_6  and  C_7 
REMARK    2  A    between atoms: C_7  and  O_8 
REMARK    3  A    between atoms: O_8  and  C_9 
REMARK       I    between atoms: C_9  and  N_10 
REMARK    4  A    between atoms: C_23  and  O_24 
ROOT
ATOM      1  N           0     134.921 132.125 146.620  0.00  0.00    -0.235 N 
ATOM      2  H           0     135.182 132.224 147.549  0.00  0.00     0.174 HD
ATOM      3  H           0     134.184 131.541 146.382  0.00  0.00     0.174 HD
ATOM      4  C           0     135.557 132.782 145.691  0.00  0.00     0.672 C 
ATOM      5  N           0     136.611 133.632 145.979  0.00  0.00    -0.218 N 
ATOM      6  C           0     137.638 133.831 144.961  0.00  0.00     0.151 C 
ATOM      7  C           0     137.057 134.201 143.610  0.00  0.00     0.177 C 
ATOM      8  N           0     136.662 135.623 143.621  0.00  0.00    -0.216 N 
ATOM      9  C           0     135.330 135.707 143.307  0.00  0.00     0.670 C 
ATOM     10  N           0     134.614 136.789 143.438  0.00  0.00    -0.235 N 
ATOM     11  H           0     135.022 137.602 143.775  0.00  0.00     0.174 HD
ATOM     12  H           0     133.674 136.781 143.197  0.00  0.00     0.174 HD
ATOM     13  C           0     135.776 133.461 143.263  0.00  0.00     0.187 C 
ATOM     14  N           0     134.841 134.511 142.840  0.00  0.00    -0.194 N 
ATOM     15  N           0     135.230 132.672 144.365  0.00  0.00    -0.186 N 
ATOM     16  C           0     134.297 131.719 143.735  0.00  0.00     0.147 C 
ATOM     17  C           0     134.996 131.310 142.418  0.00  0.00     0.057 C 
ATOM     18  C           0     135.977 132.458 142.117  0.00  0.00     0.172 C 
ATOM     19  H           0     136.665 134.084 146.836  0.00  0.00     0.178 HD
ATOM     20  H           0     137.247 136.371 143.816  0.00  0.00     0.178 HD
ATOM     21  H           0     134.027 134.382 142.328  0.00  0.00     0.180 HD
ENDROOT
BRANCH   6  22
ATOM     22  C           0     138.446 132.541 144.815  0.00  0.00     0.208 C 
BRANCH  22  23
ATOM     23  O           0     138.993 132.163 146.105  0.00  0.00    -0.302 OA
BRANCH  23  24
ATOM     24  C           0     138.776 130.926 146.592  0.00  0.00     0.358 C 
ATOM     25  N           0     139.786 130.035 146.642  0.00  0.00    -0.346 N 
ATOM     26  H           0     140.669 130.284 146.326  0.00  0.00     0.161 HD
ATOM     27  H           0     139.629 129.144 146.992  0.00  0.00     0.161 HD
ATOM     28  O           0     137.671 130.614 146.986  0.00  0.00    -0.239 OA
ENDBRANCH  23  24
ENDBRANCH  22  23
ENDBRANCH   6  22
BRANCH  18  29
ATOM     29  O           0     135.655 133.076 140.870  0.00  0.00    -0.391 OA
ATOM     30  H           0     136.045 133.960 140.887  0.00  0.00     0.210 HD
ENDBRANCH  18  29
TORSDOF 4
ENDMDL
MODEL 3
REMARK VINA RESULT:      -6.5     10.316     12.003
REMARK  4 active torsions:
REMARK  status: ('A' for Active; 'I' for Inactive)
REMARK    1  A    between atoms: C_6  and  C_7 
REMARK    2  A    between atoms: C_7  and  O_8 
REMARK    3  A    between atoms: O_8  and  C_9 
REMARK       I    between atoms: C_9  and  N_10 
REMARK    4  A    between atoms: C_23  and  O_24 
ROOT
ATOM      1  N           0     130.264 131.394 135.175  0.00  0.00    -0.235 N 
ATOM      2  H           0     129.403 131.648 135.543  0.00  0.00     0.174 HD
ATOM      3  H           0     131.082 131.687 135.606  0.00  0.00     0.174 HD
ATOM      4  C           0     130.322 130.653 134.104  0.00  0.00     0.672 C 
ATOM      5  N           0     129.184 130.205 133.456  0.00  0.00    -0.218 N 
ATOM      6  C           0     129.259 129.952 132.020  0.00  0.00     0.151 C 
ATOM      7  C           0     130.428 129.061 131.644  0.00  0.00     0.177 C 
ATOM      8  N           0     130.097 127.660 131.968  0.00  0.00    -0.216 N 
ATOM      9  C           0     131.052 127.173 132.823  0.00  0.00     0.670 C 
ATOM     10  N           0     130.948 126.047 133.471  0.00  0.00    -0.235 N 
ATOM     11  H           0     130.158 125.495 133.362  0.00  0.00     0.174 HD
ATOM     12  H           0     131.662 125.759 134.063  0.00  0.00     0.174 HD
ATOM     13  C           0     131.696 129.336 132.436  0.00  0.00     0.187 C 
ATOM     14  N           0     132.131 128.019 132.915  0.00  0.00    -0.194 N 
ATOM     15  N           0     131.513 130.273 133.543  0.00  0.00    -0.186 N 
ATOM     16  C           0     132.869 130.741 133.885  0.00  0.00     0.147 C 
ATOM     17  C           0     133.583 130.880 132.520  0.00  0.00     0.057 C 
ATOM     18  C           0     132.799 129.959 131.567  0.00  0.00     0.172 C 
ATOM     19  H           0     128.357 130.063 133.943  0.00  0.00     0.178 HD
ATOM     20  H           0     129.334 127.166 131.631  0.00  0.00     0.178 HD
ATOM     21  H           0     133.016 127.789 133.239  0.00  0.00     0.180 HD
ENDROOT
BRANCH   6  22
ATOM     22  C           0     129.402 131.288 131.288  0.00  0.00     0.208 C 
BRANCH  22  23
ATOM     23  O           0     128.092 131.891 131.122  0.00  0.00    -0.302 OA
BRANCH  23  24
ATOM     24  C           0     127.761 132.987 131.831  0.00  0.00     0.358 C 
ATOM     25  N           0     128.691 133.611 132.580  0.00  0.00    -0.346 N 
ATOM     26  H           0     129.599 133.271 132.608  0.00  0.00     0.161 HD
ATOM     27  H           0     128.453 134.401 133.091  0.00  0.00     0.161 HD
ATOM     28  O           0     126.624 133.413 131.796  0.00  0.00    -0.239 OA
ENDBRANCH  23  24
ENDBRANCH  22  23
ENDBRANCH   6  22
BRANCH  18  29
ATOM     29  O           0     133.649 128.932 131.053  0.00  0.00    -0.391 OA
ATOM     30  H           0     134.173 129.332 130.346  0.00  0.00     0.210 HD
ENDBRANCH  18  29
TORSDOF 4
ENDMDL
MODEL 4
REMARK VINA RESULT:      -6.3      7.254      9.993
REMARK  4 active torsions:
REMARK  status: ('A' for Active; 'I' for Inactive)
REMARK    1  A    between atoms: C_6  and  C_7 
REMARK    2  A    between atoms: C_7  and  O_8 
REMARK    3  A    between atoms: O_8  and  C_9 
REMARK       I    between atoms: C_9  and  N_10 
REMARK    4  A    between atoms: C_23  and  O_24 
ROOT
ATOM      1  N           0     131.477 137.258 132.339  0.00  0.00    -0.235 N 
ATOM      2  H           0     130.646 137.732 132.178  0.00  0.00     0.174 HD
ATOM      3  H           0     132.298 137.561 131.921  0.00  0.00     0.174 HD
ATOM      4  C           0     131.491 136.216 133.123  0.00  0.00     0.672 C 
ATOM      5  N           0     130.347 135.748 133.747  0.00  0.00    -0.218 N 
ATOM      6  C           0     130.265 134.325 134.064  0.00  0.00     0.151 C 
ATOM      7  C           0     131.482 133.823 134.816  0.00  0.00     0.177 C 
ATOM      8  N           0     131.388 134.238 136.229  0.00  0.00    -0.216 N 
ATOM      9  C           0     132.505 134.969 136.544  0.00  0.00     0.670 C 
ATOM     10  N           0     132.640 135.665 137.638  0.00  0.00    -0.235 N 
ATOM     11  H           0     131.924 135.685 138.292  0.00  0.00     0.174 HD
ATOM     12  H           0     133.459 136.161 137.800  0.00  0.00     0.174 HD
ATOM     13  C           0     132.796 134.421 134.340  0.00  0.00     0.187 C 
ATOM     14  N           0     133.463 134.881 135.563  0.00  0.00    -0.194 N 
ATOM     15  N           0     132.637 135.509 133.376  0.00  0.00    -0.186 N 
ATOM     16  C           0     133.951 135.643 132.721  0.00  0.00     0.147 C 
ATOM     17  C           0     134.453 134.188 132.565  0.00  0.00     0.057 C 
ATOM     18  C           0     133.679 133.386 133.627  0.00  0.00     0.172 C 
ATOM     19  H           0     129.620 136.350 133.967  0.00  0.00     0.178 HD
ATOM     20  H           0     130.660 134.028 136.834  0.00  0.00     0.178 HD
ATOM     21  H           0     134.407 135.087 135.659  0.00  0.00     0.180 HD
ENDROOT
BRANCH   6  22
ATOM     22  C           0     130.129 133.534 132.762  0.00  0.00     0.208 C 
BRANCH  22  23
ATOM     23  O           0     128.966 134.004 132.029  0.00  0.00    -0.302 OA
BRANCH  23  24
ATOM     24  C           0     127.980 133.144 131.709  0.00  0.00     0.358 C 
ATOM     25  N           0     128.273 131.989 131.078  0.00  0.00    -0.346 N 
ATOM     26  H           0     129.193 131.778 130.854  0.00  0.00     0.161 HD
ATOM     27  H           0     127.562 131.370 130.847  0.00  0.00     0.161 HD
ATOM     28  O           0     126.829 133.408 131.989  0.00  0.00    -0.239 OA
ENDBRANCH  23  24
ENDBRANCH  22  23
ENDBRANCH   6  22
BRANCH  18  29
ATOM     29  O           0     134.584 132.796 134.563  0.00  0.00    -0.391 OA
ATOM     30  H           0     134.051 132.264 135.169  0.00  0.00     0.210 HD
ENDBRANCH  18  29
TORSDOF 4
ENDMDL
MODEL 5
REMARK VINA RESULT:      -6.3      2.811      4.600
REMARK  4 active torsions:
REMARK  status: ('A' for Active; 'I' for Inactive)
REMARK    1  A    between atoms: C_6  and  C_7 
REMARK    2  A    between atoms: C_7  and  O_8 
REMARK    3  A    between atoms: O_8  and  C_9 
REMARK       I    between atoms: C_9  and  N_10 
REMARK    4  A    between atoms: C_23  and  O_24 
ROOT
ATOM      1  N           0     139.996 131.697 145.785  0.00  0.00    -0.235 N 
ATOM      2  H           0     140.694 132.091 145.238  0.00  0.00     0.174 HD
ATOM      3  H           0     140.207 130.970 146.392  0.00  0.00     0.174 HD
ATOM      4  C           0     138.776 132.149 145.711  0.00  0.00     0.672 C 
ATOM      5  N           0     138.425 133.188 144.866  0.00  0.00    -0.218 N 
ATOM      6  C           0     137.057 133.237 144.359  0.00  0.00     0.151 C 
ATOM      7  C           0     136.021 133.122 145.461  0.00  0.00     0.177 C 
ATOM      8  N           0     135.907 134.416 146.160  0.00  0.00    -0.216 N 
ATOM      9  C           0     136.161 134.216 147.493  0.00  0.00     0.670 C 
ATOM     10  N           0     136.354 135.176 148.354  0.00  0.00    -0.235 N 
ATOM     11  H           0     136.321 136.101 148.064  0.00  0.00     0.174 HD
ATOM     12  H           0     136.529 134.965 149.285  0.00  0.00     0.174 HD
ATOM     13  C           0     136.391 132.138 146.559  0.00  0.00     0.187 C 
ATOM     14  N           0     136.189 132.879 147.810  0.00  0.00    -0.194 N 
ATOM     15  N           0     137.755 131.622 146.458  0.00  0.00    -0.186 N 
ATOM     16  C           0     137.774 130.406 147.292  0.00  0.00     0.147 C 
ATOM     17  C           0     136.398 129.747 147.040  0.00  0.00     0.057 C 
ATOM     18  C           0     135.494 130.891 146.547  0.00  0.00     0.172 C 
ATOM     19  H           0     139.073 133.866 144.618  0.00  0.00     0.178 HD
ATOM     20  H           0     135.688 135.266 145.747  0.00  0.00     0.178 HD
ATOM     21  H           0     136.096 132.496 148.696  0.00  0.00     0.180 HD
ENDROOT
BRANCH   6  22
ATOM     22  C           0     136.854 132.088 143.370  0.00  0.00     0.208 C 
BRANCH  22  23
ATOM     23  O           0     135.442 131.959 143.061  0.00  0.00    -0.302 OA
BRANCH  23  24
ATOM     24  C           0     134.933 132.566 141.971  0.00  0.00     0.358 C 
ATOM     25  N           0     135.759 133.127 141.066  0.00  0.00    -0.346 N 
ATOM     26  H           0     136.719 133.094 141.199  0.00  0.00     0.161 HD
ATOM     27  H           0     135.392 133.564 140.281  0.00  0.00     0.161 HD
ATOM     28  O           0     133.731 132.607 141.804  0.00  0.00    -0.239 OA
ENDBRANCH  23  24
ENDBRANCH  22  23
ENDBRANCH   6  22
BRANCH  18  29
ATOM     29  O           0     134.394 131.078 147.440  0.00  0.00    -0.391 OA
ATOM     30  H           0     134.424 130.351 148.077  0.00  0.00     0.210 HD
ENDBRANCH  18  29
TORSDOF 4
ENDMDL
MODEL 6
REMARK VINA RESULT:      -6.3      3.133      4.493
REMARK  4 active torsions:
REMARK  status: ('A' for Active; 'I' for Inactive)
REMARK    1  A    between atoms: C_6  and  C_7 
REMARK    2  A    between atoms: C_7  and  O_8 
REMARK    3  A    between atoms: O_8  and  C_9 
REMARK       I    between atoms: C_9  and  N_10 
REMARK    4  A    between atoms: C_23  and  O_24 
ROOT
ATOM      1  N           0     135.969 134.495 146.976  0.00  0.00    -0.235 N 
ATOM      2  H           0     135.392 135.128 146.521  0.00  0.00     0.174 HD
ATOM      3  H           0     136.572 134.801 147.671  0.00  0.00     0.174 HD
ATOM      4  C           0     135.930 133.231 146.658  0.00  0.00     0.672 C 
ATOM      5  N           0     135.082 132.744 145.678  0.00  0.00    -0.218 N 
ATOM      6  C           0     135.485 131.547 144.946  0.00  0.00     0.151 C 
ATOM      7  C           0     135.889 130.409 145.865  0.00  0.00     0.177 C 
ATOM      8  N           0     134.676 129.775 146.418  0.00  0.00    -0.216 N 
ATOM      9  C           0     134.744 129.824 147.786  0.00  0.00     0.670 C 
ATOM     10  N           0     133.747 129.549 148.579  0.00  0.00    -0.235 N 
ATOM     11  H           0     132.889 129.289 148.208  0.00  0.00     0.174 HD
ATOM     12  H           0     133.862 129.603 149.541  0.00  0.00     0.174 HD
ATOM     13  C           0     136.670 130.850 147.092  0.00  0.00     0.187 C 
ATOM     14  N           0     135.992 130.201 148.220  0.00  0.00    -0.194 N 
ATOM     15  N           0     136.730 132.300 147.267  0.00  0.00    -0.186 N 
ATOM     16  C           0     137.851 132.533 148.196  0.00  0.00     0.147 C 
ATOM     17  C           0     138.920 131.498 147.776  0.00  0.00     0.057 C 
ATOM     18  C           0     138.136 130.396 147.039  0.00  0.00     0.172 C 
ATOM     19  H           0     134.241 133.187 145.483  0.00  0.00     0.178 HD
ATOM     20  H           0     133.953 129.388 145.900  0.00  0.00     0.178 HD
ATOM     21  H           0     136.358 130.065 149.108  0.00  0.00     0.180 HD
ENDROOT
BRANCH   6  22
ATOM     22  C           0     136.669 131.895 144.042  0.00  0.00     0.208 C 
BRANCH  22  23
ATOM     23  O           0     136.259 132.891 143.069  0.00  0.00    -0.302 OA
BRANCH  23  24
ATOM     24  C           0     136.813 134.118 143.088  0.00  0.00     0.358 C 
ATOM     25  N           0     137.919 134.370 142.360  0.00  0.00    -0.346 N 
ATOM     26  H           0     138.316 133.666 141.823  0.00  0.00     0.161 HD
ATOM     27  H           0     138.318 135.254 142.374  0.00  0.00     0.161 HD
ATOM     28  O           0     136.316 134.999 143.761  0.00  0.00    -0.239 OA
ENDBRANCH  23  24
ENDBRANCH  22  23
ENDBRANCH   6  22
BRANCH  18  29
ATOM     29  O           0     138.280 129.145 147.714  0.00  0.00    -0.391 OA
ATOM     30  H           0     139.205 128.879 147.615  0.00  0.00     0.210 HD
ENDBRANCH  18  29
TORSDOF 4
ENDMDL
MODEL 7
REMARK VINA RESULT:      -6.2      5.374      9.667
REMARK  4 active torsions:
REMARK  status: ('A' for Active; 'I' for Inactive)
REMARK    1  A    between atoms: C_6  and  C_7 
REMARK    2  A    between atoms: C_7  and  O_8 
REMARK    3  A    between atoms: O_8  and  C_9 
REMARK       I    between atoms: C_9  and  N_10 
REMARK    4  A    between atoms: C_23  and  O_24 
ROOT
ATOM      1  N           0     130.448 132.610 135.805  0.00  0.00    -0.235 N 
ATOM      2  H           0     129.773 132.804 136.474  0.00  0.00     0.174 HD
ATOM      3  H           0     130.573 131.701 135.491  0.00  0.00     0.174 HD
ATOM      4  C           0     131.185 133.571 135.323  0.00  0.00     0.672 C 
ATOM      5  N           0     131.041 134.886 135.734  0.00  0.00    -0.218 N 
ATOM      6  C           0     132.208 135.761 135.675  0.00  0.00     0.151 C 
ATOM      7  C           0     132.889 135.735 134.319  0.00  0.00     0.177 C 
ATOM      8  N           0     132.113 136.553 133.368  0.00  0.00    -0.216 N 
ATOM      9  C           0     131.763 135.766 132.300  0.00  0.00     0.670 C 
ATOM     10  N           0     130.898 136.111 131.389  0.00  0.00    -0.235 N 
ATOM     11  H           0     130.457 136.974 131.440  0.00  0.00     0.174 HD
ATOM     12  H           0     130.696 135.506 130.657  0.00  0.00     0.174 HD
ATOM     13  C           0     132.936 134.359 133.675  0.00  0.00     0.187 C 
ATOM     14  N           0     132.435 134.568 132.312  0.00  0.00    -0.194 N 
ATOM     15  N           0     132.155 133.346 134.382  0.00  0.00    -0.186 N 
ATOM     16  C           0     132.666 132.052 133.896  0.00  0.00     0.147 C 
ATOM     17  C           0     134.191 132.269 133.755  0.00  0.00     0.057 C 
ATOM     18  C           0     134.363 133.793 133.620  0.00  0.00     0.172 C 
ATOM     19  H           0     130.187 135.216 136.053  0.00  0.00     0.178 HD
ATOM     20  H           0     131.888 137.490 133.478  0.00  0.00     0.178 HD
ATOM     21  H           0     132.555 133.968 131.558  0.00  0.00     0.180 HD
ENDROOT
BRANCH   6  22
ATOM     22  C           0     133.214 135.319 136.740  0.00  0.00     0.208 C 
BRANCH  22  23
ATOM     23  O           0     132.570 135.314 138.041  0.00  0.00    -0.302 OA
BRANCH  23  24
ATOM     24  C           0     133.310 135.178 139.158  0.00  0.00     0.358 C 
ATOM     25  N           0     133.580 136.254 139.922  0.00  0.00    -0.346 N 
ATOM     26  H           0     133.241 137.127 139.668  0.00  0.00     0.161 HD
ATOM     27  H           0     134.113 136.156 140.727  0.00  0.00     0.161 HD
ATOM     28  O           0     133.734 134.085 139.476  0.00  0.00    -0.239 OA
ENDBRANCH  23  24
ENDBRANCH  22  23
ENDBRANCH   6  22
BRANCH  18  29
ATOM     29  O           0     134.965 134.119 132.366  0.00  0.00    -0.391 OA
ATOM     30  H           0     134.295 133.964 131.686  0.00  0.00     0.210 HD
ENDBRANCH  18  29
TORSDOF 4
ENDMDL
MODEL 8
REMARK VINA RESULT:      -6.2      7.874      9.994
REMARK  4 active torsions:
REMARK  status: ('A' for Active; 'I' for Inactive)
REMARK    1  A    between atoms: C_6  and  C_7 
REMARK    2  A    between atoms: C_7  and  O_8 
REMARK    3  A    between atoms: O_8  and  C_9 
REMARK       I    between atoms: C_9  and  N_10 
REMARK    4  A    between atoms: C_23  and  O_24 
ROOT
ATOM      1  N           0     134.116 133.150 132.485  0.00  0.00    -0.235 N 
ATOM      2  H           0     134.103 132.409 131.860  0.00  0.00     0.174 HD
ATOM      3  H           0     134.950 133.604 132.682  0.00  0.00     0.174 HD
ATOM      4  C           0     133.012 133.540 133.058  0.00  0.00     0.672 C 
ATOM      5  N           0     131.795 132.928 132.806  0.00  0.00    -0.218 N 
ATOM      6  C           0     130.780 132.949 133.854  0.00  0.00     0.151 C 
ATOM      7  C           0     130.532 134.342 134.401  0.00  0.00     0.177 C 
ATOM      8  N           0     129.696 135.098 133.448  0.00  0.00    -0.216 N 
ATOM      9  C           0     130.366 136.239 133.089  0.00  0.00     0.670 C 
ATOM     10  N           0     130.011 137.019 132.108  0.00  0.00    -0.235 N 
ATOM     11  H           0     129.226 136.806 131.578  0.00  0.00     0.174 HD
ATOM     12  H           0     130.530 137.814 131.906  0.00  0.00     0.174 HD
ATOM     13  C           0     131.789 135.185 134.542  0.00  0.00     0.187 C 
ATOM     14  N           0     131.460 136.459 133.892  0.00  0.00    -0.194 N 
ATOM     15  N           0     132.980 134.577 133.953  0.00  0.00    -0.186 N 
ATOM     16  C           0     134.120 135.289 134.559  0.00  0.00     0.147 C 
ATOM     17  C           0     133.694 135.515 136.028  0.00  0.00     0.057 C 
ATOM     18  C           0     132.157 135.436 136.012  0.00  0.00     0.172 C 
ATOM     19  H           0     131.623 132.497 131.954  0.00  0.00     0.178 HD
ATOM     20  H           0     128.819 134.832 133.129  0.00  0.00     0.178 HD
ATOM     21  H           0     131.930 137.300 134.006  0.00  0.00     0.180 HD
ENDROOT
BRANCH   6  22
ATOM     22  C           0     131.234 132.044 135.001  0.00  0.00     0.208 C 
BRANCH  22  23
ATOM     23  O           0     131.044 132.731 136.265  0.00  0.00    -0.302 OA
BRANCH  23  24
ATOM     24  C           0     130.500 132.080 137.311  0.00  0.00     0.358 C 
ATOM     25  N           0     129.481 131.220 137.113  0.00  0.00    -0.346 N 
ATOM     26  H           0     129.139 131.071 136.217  0.00  0.00     0.161 HD
ATOM     27  H           0     129.090 130.750 137.866  0.00  0.00     0.161 HD
ATOM     28  O           0     130.928 132.266 138.432  0.00  0.00    -0.239 OA
ENDBRANCH  23  24
ENDBRANCH  22  23
ENDBRANCH   6  22
BRANCH  18  29
ATOM     29  O           0     131.588 136.671 136.450  0.00  0.00    -0.391 OA
ATOM     30  H           0     130.651 136.503 136.620  0.00  0.00     0.210 HD
ENDBRANCH  18  29
TORSDOF 4
ENDMDL
MODEL 9
REMARK VINA RESULT:      -6.1      8.408     10.679
REMARK  4 active torsions:
REMARK  status: ('A' for Active; 'I' for Inactive)
REMARK    1  A    between atoms: C_6  and  C_7 
REMARK    2  A    between atoms: C_7  and  O_8 
REMARK    3  A    between atoms: O_8  and  C_9 
REMARK       I    between atoms: C_9  and  N_10 
REMARK    4  A    between atoms: C_23  and  O_24 
ROOT
ATOM      1  N           0     128.416 134.190 132.686  0.00  0.00    -0.235 N 
ATOM      2  H           0     127.817 133.471 132.939  0.00  0.00     0.174 HD
ATOM      3  H           0     128.108 134.890 132.089  0.00  0.00     0.174 HD
ATOM      4  C           0     129.632 134.222 133.152  0.00  0.00     0.672 C 
ATOM      5  N           0     130.117 133.250 134.011  0.00  0.00    -0.218 N 
ATOM      6  C           0     131.549 132.969 134.001  0.00  0.00     0.151 C 
ATOM      7  C           0     132.392 134.222 134.142  0.00  0.00     0.177 C 
ATOM      8  N           0     132.393 134.653 135.553  0.00  0.00    -0.216 N 
ATOM      9  C           0     131.926 135.940 135.617  0.00  0.00     0.670 C 
ATOM     10  N           0     131.597 136.546 136.723  0.00  0.00    -0.235 N 
ATOM     11  H           0     131.678 136.084 137.572  0.00  0.00     0.174 HD
ATOM     12  H           0     131.272 137.460 136.697  0.00  0.00     0.174 HD
ATOM     13  C           0     131.847 135.424 133.387  0.00  0.00     0.187 C 
ATOM     14  N           0     131.844 136.513 134.370  0.00  0.00    -0.194 N 
ATOM     15  N           0     130.517 135.213 132.818  0.00  0.00    -0.186 N 
ATOM     16  C           0     130.362 136.263 131.794  0.00  0.00     0.147 C 
ATOM     17  C           0     131.759 136.373 131.142  0.00  0.00     0.057 C 
ATOM     18  C           0     132.733 135.808 132.192  0.00  0.00     0.172 C 
ATOM     19  H           0     129.520 132.769 134.605  0.00  0.00     0.178 HD
ATOM     20  H           0     132.678 134.116 136.309  0.00  0.00     0.178 HD
ATOM     21  H           0     131.792 137.462 134.175  0.00  0.00     0.180 HD
ENDROOT
BRANCH   6  22
ATOM     22  C           0     131.909 132.279 132.683  0.00  0.00     0.208 C 
BRANCH  22  23
ATOM     23  O           0     133.036 131.388 132.895  0.00  0.00    -0.302 OA
BRANCH  23  24
ATOM     24  C           0     132.969 130.430 133.839  0.00  0.00     0.358 C 
ATOM     25  N           0     132.105 129.405 133.698  0.00  0.00    -0.346 N 
ATOM     26  H           0     131.531 129.358 132.917  0.00  0.00     0.161 HD
ATOM     27  H           0     132.056 128.715 134.378  0.00  0.00     0.161 HD
ATOM     28  O           0     133.687 130.489 134.817  0.00  0.00    -0.239 OA
ENDBRANCH  23  24
ENDBRANCH  22  23
ENDBRANCH   6  22
BRANCH  18  29
ATOM     29  O           0     133.674 136.808 132.589  0.00  0.00    -0.391 OA
ATOM     30  H           0     134.500 136.349 132.793  0.00  0.00     0.210 HD
ENDBRANCH  18  29
TORSDOF 4
ENDMDL
