# created with PyMOL 2.3.4
@<TRIPOS>MOLECULE
ligand_out_0001
32 34 1                 
SMALL
USER_CHARGES
@<TRIPOS>ATOM
1	   N	134.972	132.171	146.680	N.3	1	UNK0	-0.235	
2	   N	136.432	133.904	146.046	N.3	1	UNK0	-0.218	
3	   N	136.158	135.931	143.743	N.3	1	UNK0	-0.216	
4	   N	134.336	136.938	142.618	N.3	1	UNK0	-0.235	
5	   N	134.489	134.602	142.962	N.3	1	UNK0	-0.191	
6	   N	135.157	132.803	144.434	N.3	1	UNK0	-0.183	
7	   N	139.976	130.763	146.748	N.pl3	1	UNK0	-0.337	
8	   C	135.495	132.927	145.756	C.3	1	UNK0	0.672	
9	   C	137.401	134.259	145.015	C.3	1	UNK0	0.151	
10	   C	136.750	134.577	143.683	C.3	1	UNK0	0.180	
11	   C	134.956	135.887	143.080	C.3	1	UNK0	0.670	
12	   C	135.572	133.679	143.338	C.3	1	UNK0	0.217	
13	   C	134.355	131.740	143.800	C.3	1	UNK0	0.150	
14	   C	135.087	131.451	142.467	C.3	1	UNK0	0.093	
15	   C	135.891	132.740	142.163	C.3	1	UNK0	0.209	
16	   C	138.369	133.090	144.823	C.2	1	UNK0	0.208	
17	   C	140.072	131.950	146.117	C.2	1	UNK0	0.362	
18	   C	141.125	129.855	146.781	C.3	1	UNK0	0.154	
19	   C	138.722	130.380	147.401	C.3	1	UNK0	0.154	
20	   O	139.015	132.784	146.086	O.2	1	UNK0	-0.302	
21	   O	141.112	132.267	145.575	O.co2	1	UNK0	-0.238	
22	   O	135.460	133.316	140.927	O.2	1	UNK0	-0.362	
23	   O	137.291	132.455	142.119	O.2	1	UNK0	-0.362	
24	   H	135.237	132.283	147.606	 H	1	UNK0	0.174	
25	   H	134.314	131.498	146.442	 H	1	UNK0	0.174	
26	   H	134.723	137.819	142.736	 H	1	UNK0	0.174	
27	   H	133.488	136.836	142.158	 H	1	UNK0	0.174	
28	   H	136.443	134.341	146.913	 H	1	UNK0	0.178	
29	   H	136.548	136.708	144.172	 H	1	UNK0	0.178	
30	   H	133.598	134.346	142.676	 H	1	UNK0	0.180	
31	   H	135.578	134.273	141.010	 H	1	UNK0	0.213	
32	   H	137.463	131.797	142.805	 H	1	UNK0	0.213	
@<TRIPOS>BOND
1 1 8 1
2 1 24 1
3 1 25 1
4 2 9 1
5 2 28 1
6 3 11 1
7 3 29 1
8 4 26 1
9 4 27 1
10 5 30 1
11 6 13 1
12 7 18 1
13 7 19 1
14 2 8 1
15 6 8 1
16 9 10 1
17 9 16 1
18 3 10 1
19 10 12 1
20 4 11 1
21 5 11 1
22 5 12 1
23 6 12 1
24 12 15 1
25 13 14 1
26 14 15 1
27 15 22 2
28 15 23 2
29 16 20 2
30 7 17 1
31 17 21 2
32 17 20 2
33 22 31 1
34 23 32 1
@<TRIPOS>SUBSTRUCTURE
1	UNK0	1	GROUP	1 ****	UNK
