# created with PyMOL 2.3.4
@<TRIPOS>MOLECULE
ligand_out_0001
30 32 1                 
SMALL
USER_CHARGES
@<TRIPOS>ATOM
1	   N	135.496	132.546	147.003	N.3	1	UNK0	-0.235	
2	   N	136.823	134.270	146.106	N.3	1	UNK0	-0.218	
3	   N	136.286	136.063	143.659	N.3	1	UNK0	-0.216	
4	   N	134.341	136.888	142.594	N.3	1	UNK0	-0.235	
5	   N	134.628	134.603	143.131	N.3	1	UNK0	-0.191	
6	   N	135.485	132.975	144.702	N.3	1	UNK0	-0.183	
7	   C	135.914	133.234	145.977	C.3	1	UNK0	0.672	
8	   C	137.697	134.567	144.976	C.3	1	UNK0	0.151	
9	   C	136.935	134.734	143.675	C.3	1	UNK0	0.180	
10	   C	135.042	135.911	143.097	C.3	1	UNK0	0.670	
11	   C	135.777	133.763	143.503	C.3	1	UNK0	0.217	
12	   C	134.690	131.827	144.229	C.3	1	UNK0	0.150	
13	   C	135.334	131.446	142.875	C.3	1	UNK0	0.093	
14	   C	136.053	132.732	142.395	C.3	1	UNK0	0.209	
15	   C	138.701	133.425	144.814	C.2	1	UNK0	0.206	
16	   C	139.539	132.063	146.631	C.2	1	UNK0	0.254	
17	   C	140.854	131.327	146.659	C.3	1	UNK0	0.126	
18	   O	139.457	133.267	146.043	O.2	1	UNK0	-0.320	
19	   O	138.559	131.569	147.136	O.co2	1	UNK0	-0.266	
20	   O	135.506	133.173	141.151	O.2	1	UNK0	-0.362	
21	   O	137.457	132.501	142.270	O.2	1	UNK0	-0.362	
22	   H	135.823	132.754	147.892	 H	1	UNK0	0.174	
23	   H	134.854	131.830	146.878	 H	1	UNK0	0.174	
24	   H	134.694	137.792	142.602	 H	1	UNK0	0.174	
25	   H	133.469	136.712	142.211	 H	1	UNK0	0.174	
26	   H	136.876	134.786	146.927	 H	1	UNK0	0.178	
27	   H	136.670	136.892	143.986	 H	1	UNK0	0.178	
28	   H	133.731	134.286	142.939	 H	1	UNK0	0.180	
29	   H	134.570	133.356	141.306	 H	1	UNK0	0.213	
30	   H	137.638	132.386	141.327	 H	1	UNK0	0.213	
@<TRIPOS>BOND
1 1 7 1
2 1 22 1
3 1 23 1
4 2 8 1
5 2 26 1
6 3 10 1
7 3 27 1
8 4 24 1
9 4 25 1
10 5 28 1
11 6 12 1
12 2 7 1
13 6 7 1
14 8 9 1
15 8 15 1
16 3 9 1
17 9 11 1
18 4 10 1
19 5 10 1
20 5 11 1
21 6 11 1
22 11 14 1
23 12 13 1
24 13 14 1
25 14 20 2
26 14 21 2
27 15 18 2
28 16 17 1
29 16 19 2
30 16 18 2
31 20 29 1
32 21 30 1
@<TRIPOS>SUBSTRUCTURE
1	UNK0	1	GROUP	1 ****	UNK
