MODEL 1
REMARK VINA RESULT:      -7.6      0.000      0.000
REMARK  5 active torsions:
REMARK  status: ('A' for Active; 'I' for Inactive)
REMARK    1  A    between atoms: C_6  and  C_7 
REMARK    2  A    between atoms: C_7  and  O_8 
REMARK    3  A    between atoms: O_8  and  C_9 
REMARK    4  A    between atoms: C_23  and  O_24 
REMARK    5  A    between atoms: C_23  and  O_25 
ROOT
ATOM      1  N           0     135.496 132.546 147.003  0.00  0.00    -0.235 N 
ATOM      2  H           0     135.823 132.754 147.892  0.00  0.00     0.174 HD
ATOM      3  H           0     134.854 131.830 146.878  0.00  0.00     0.174 HD
ATOM      4  C           0     135.914 133.234 145.977  0.00  0.00     0.672 C 
ATOM      5  N           0     136.823 134.270 146.106  0.00  0.00    -0.218 N 
ATOM      6  C           0     137.697 134.567 144.976  0.00  0.00     0.151 C 
ATOM      7  C           0     136.935 134.734 143.675  0.00  0.00     0.180 C 
ATOM      8  N           0     136.286 136.063 143.659  0.00  0.00    -0.216 N 
ATOM      9  C           0     135.042 135.911 143.097  0.00  0.00     0.670 C 
ATOM     10  N           0     134.341 136.888 142.594  0.00  0.00    -0.235 N 
ATOM     11  H           0     134.694 137.792 142.602  0.00  0.00     0.174 HD
ATOM     12  H           0     133.469 136.712 142.211  0.00  0.00     0.174 HD
ATOM     13  C           0     135.777 133.763 143.503  0.00  0.00     0.217 C 
ATOM     14  N           0     134.628 134.603 143.131  0.00  0.00    -0.191 N 
ATOM     15  N           0     135.485 132.975 144.702  0.00  0.00    -0.183 N 
ATOM     16  C           0     134.690 131.827 144.229  0.00  0.00     0.150 C 
ATOM     17  C           0     135.334 131.446 142.875  0.00  0.00     0.093 C 
ATOM     18  C           0     136.053 132.732 142.395  0.00  0.00     0.209 C 
ATOM     19  H           0     136.876 134.786 146.927  0.00  0.00     0.178 HD
ATOM     20  H           0     136.670 136.892 143.986  0.00  0.00     0.178 HD
ATOM     21  H           0     133.731 134.286 142.939  0.00  0.00     0.180 HD
ENDROOT
BRANCH   6  22
ATOM     22  C           0     138.701 133.425 144.814  0.00  0.00     0.206 C 
BRANCH  22  23
ATOM     23  O           0     139.457 133.267 146.043  0.00  0.00    -0.320 OA
BRANCH  23  24
ATOM     24  C           0     139.539 132.063 146.631  0.00  0.00     0.254 C 
ATOM     25  C           0     140.854 131.327 146.659  0.00  0.00     0.126 C 
ATOM     26  O           0     138.559 131.569 147.136  0.00  0.00    -0.266 OA
ENDBRANCH  23  24
ENDBRANCH  22  23
ENDBRANCH   6  22
BRANCH  18  27
ATOM     27  O           0     135.506 133.173 141.151  0.00  0.00    -0.362 OA
ATOM     28  H           0     134.570 133.356 141.306  0.00  0.00     0.213 HD
ENDBRANCH  18  27
BRANCH  18  29
ATOM     29  O           0     137.457 132.501 142.270  0.00  0.00    -0.362 OA
ATOM     30  H           0     137.638 132.386 141.327  0.00  0.00     0.213 HD
ENDBRANCH  18  29
TORSDOF 5
ENDMDL
MODEL 2
REMARK VINA RESULT:      -7.4      2.101      5.684
REMARK  5 active torsions:
REMARK  status: ('A' for Active; 'I' for Inactive)
REMARK    1  A    between atoms: C_6  and  C_7 
REMARK    2  A    between atoms: C_7  and  O_8 
REMARK    3  A    between atoms: O_8  and  C_9 
REMARK    4  A    between atoms: C_23  and  O_24 
REMARK    5  A    between atoms: C_23  and  O_25 
ROOT
ATOM      1  N           0     135.127 136.782 143.241  0.00  0.00    -0.235 N 
ATOM      2  H           0     134.345 137.280 142.956  0.00  0.00     0.174 HD
ATOM      3  H           0     135.948 137.251 143.458  0.00  0.00     0.174 HD
ATOM      4  C           0     135.074 135.483 143.336  0.00  0.00     0.672 C 
ATOM      5  N           0     133.925 134.770 143.043  0.00  0.00    -0.218 N 
ATOM      6  C           0     134.066 133.398 142.565  0.00  0.00     0.151 C 
ATOM      7  C           0     134.959 132.556 143.457  0.00  0.00     0.180 C 
ATOM      8  N           0     134.207 132.169 144.670  0.00  0.00    -0.216 N 
ATOM      9  C           0     135.069 132.249 145.736  0.00  0.00     0.670 C 
ATOM     10  N           0     134.879 131.652 146.879  0.00  0.00    -0.235 N 
ATOM     11  H           0     134.086 131.108 147.016  0.00  0.00     0.174 HD
ATOM     12  H           0     135.528 131.749 147.592  0.00  0.00     0.174 HD
ATOM     13  C           0     136.170 133.298 144.002  0.00  0.00     0.217 C 
ATOM     14  N           0     136.157 133.036 145.450  0.00  0.00    -0.191 N 
ATOM     15  N           0     136.154 134.736 143.729  0.00  0.00    -0.183 N 
ATOM     16  C           0     137.546 135.182 143.908  0.00  0.00     0.150 C 
ATOM     17  C           0     138.397 134.030 143.323  0.00  0.00     0.093 C 
ATOM     18  C           0     137.483 132.781 143.388  0.00  0.00     0.209 C 
ATOM     19  H           0     133.048 135.171 143.153  0.00  0.00     0.178 HD
ATOM     20  H           0     133.273 131.905 144.706  0.00  0.00     0.178 HD
ATOM     21  H           0     136.807 133.361 146.092  0.00  0.00     0.180 HD
ENDROOT
BRANCH   6  22
ATOM     22  C           0     134.662 133.424 141.157  0.00  0.00     0.206 C 
BRANCH  22  23
ATOM     23  O           0     133.599 133.590 140.184  0.00  0.00    -0.320 OA
BRANCH  23  24
ATOM     24  C           0     133.381 134.791 139.625  0.00  0.00     0.254 C 
ATOM     25  C           0     133.394 134.939 138.126  0.00  0.00     0.126 C 
ATOM     26  O           0     133.176 135.755 140.325  0.00  0.00    -0.266 OA
ENDBRANCH  23  24
ENDBRANCH  22  23
ENDBRANCH   6  22
BRANCH  18  27
ATOM     27  O           0     138.066 131.779 144.221  0.00  0.00    -0.362 OA
ATOM     28  H           0     138.659 132.234 144.834  0.00  0.00     0.213 HD
ENDBRANCH  18  27
BRANCH  18  29
ATOM     29  O           0     137.249 132.266 142.076  0.00  0.00    -0.362 OA
ATOM     30  H           0     137.195 133.028 141.483  0.00  0.00     0.213 HD
ENDBRANCH  18  29
TORSDOF 5
ENDMDL
MODEL 3
REMARK VINA RESULT:      -6.6      3.061      4.540
REMARK  5 active torsions:
REMARK  status: ('A' for Active; 'I' for Inactive)
REMARK    1  A    between atoms: C_6  and  C_7 
REMARK    2  A    between atoms: C_7  and  O_8 
REMARK    3  A    between atoms: O_8  and  C_9 
REMARK    4  A    between atoms: C_23  and  O_24 
REMARK    5  A    between atoms: C_23  and  O_25 
ROOT
ATOM      1  N           0     139.111 130.465 145.909  0.00  0.00    -0.235 N 
ATOM      2  H           0     139.282 129.616 146.346  0.00  0.00     0.174 HD
ATOM      3  H           0     139.845 130.969 145.526  0.00  0.00     0.174 HD
ATOM      4  C           0     137.893 130.922 145.829  0.00  0.00     0.672 C 
ATOM      5  N           0     136.812 130.235 146.353  0.00  0.00    -0.218 N 
ATOM      6  C           0     135.653 131.005 146.795  0.00  0.00     0.151 C 
ATOM      7  C           0     135.159 131.977 145.741  0.00  0.00     0.180 C 
ATOM      8  N           0     134.405 131.233 144.709  0.00  0.00    -0.216 N 
ATOM      9  C           0     134.728 131.774 143.488  0.00  0.00     0.670 C 
ATOM     10  N           0     134.009 131.630 142.410  0.00  0.00    -0.235 N 
ATOM     11  H           0     133.188 131.114 142.440  0.00  0.00     0.174 HD
ATOM     12  H           0     134.294 132.040 141.579  0.00  0.00     0.174 HD
ATOM     13  C           0     136.269 132.661 144.958  0.00  0.00     0.217 C 
ATOM     14  N           0     135.901 132.484 143.544  0.00  0.00    -0.191 N 
ATOM     15  N           0     137.601 132.118 145.225  0.00  0.00    -0.183 N 
ATOM     16  C           0     138.544 133.152 144.762  0.00  0.00     0.150 C 
ATOM     17  C           0     137.874 134.488 145.163  0.00  0.00     0.093 C 
ATOM     18  C           0     136.365 134.160 145.290  0.00  0.00     0.209 C 
ATOM     19  H           0     136.824 129.267 146.424  0.00  0.00     0.178 HD
ATOM     20  H           0     133.793 130.496 144.866  0.00  0.00     0.178 HD
ATOM     21  H           0     136.401 132.816 142.781  0.00  0.00     0.180 HD
ENDROOT
BRANCH   6  22
ATOM     22  C           0     136.031 131.791 148.051  0.00  0.00     0.206 C 
BRANCH  22  23
ATOM     23  O           0     134.838 132.384 148.629  0.00  0.00    -0.320 OA
BRANCH  23  24
ATOM     24  C           0     134.009 131.635 149.372  0.00  0.00     0.254 C 
ATOM     25  C           0     134.559 130.527 150.232  0.00  0.00     0.126 C 
ATOM     26  O           0     132.819 131.848 149.349  0.00  0.00    -0.266 OA
ENDBRANCH  23  24
ENDBRANCH  22  23
ENDBRANCH   6  22
BRANCH  18  27
ATOM     27  O           0     135.607 134.932 144.357  0.00  0.00    -0.362 OA
ATOM     28  H           0     136.196 135.619 144.018  0.00  0.00     0.213 HD
ENDBRANCH  18  27
BRANCH  18  29
ATOM     29  O           0     135.913 134.403 146.624  0.00  0.00    -0.362 OA
ATOM     30  H           0     136.408 133.805 147.199  0.00  0.00     0.213 HD
ENDBRANCH  18  29
TORSDOF 5
ENDMDL
MODEL 4
REMARK VINA RESULT:      -6.4      2.626      4.951
REMARK  5 active torsions:
REMARK  status: ('A' for Active; 'I' for Inactive)
REMARK    1  A    between atoms: C_6  and  C_7 
REMARK    2  A    between atoms: C_7  and  O_8 
REMARK    3  A    between atoms: O_8  and  C_9 
REMARK    4  A    between atoms: C_23  and  O_24 
REMARK    5  A    between atoms: C_23  and  O_25 
ROOT
ATOM      1  N           0     139.635 130.605 146.225  0.00  0.00    -0.235 N 
ATOM      2  H           0     140.400 130.713 145.639  0.00  0.00     0.174 HD
ATOM      3  H           0     139.640 129.913 146.905  0.00  0.00     0.174 HD
ATOM      4  C           0     138.604 131.392 146.104  0.00  0.00     0.672 C 
ATOM      5  N           0     138.552 132.398 145.154  0.00  0.00    -0.218 N 
ATOM      6  C           0     137.245 132.802 144.647  0.00  0.00     0.151 C 
ATOM      7  C           0     136.258 133.116 145.755  0.00  0.00     0.180 C 
ATOM      8  N           0     136.568 134.446 146.320  0.00  0.00    -0.216 N 
ATOM      9  C           0     136.396 134.369 147.680  0.00  0.00     0.670 C 
ATOM     10  N           0     136.226 135.403 148.457  0.00  0.00    -0.235 N 
ATOM     11  H           0     136.215 136.297 148.079  0.00  0.00     0.174 HD
ATOM     12  H           0     136.110 135.279 149.411  0.00  0.00     0.174 HD
ATOM     13  C           0     136.350 132.181 146.951  0.00  0.00     0.217 C 
ATOM     14  N           0     136.426 133.070 148.122  0.00  0.00    -0.191 N 
ATOM     15  N           0     137.498 131.275 146.906  0.00  0.00    -0.183 N 
ATOM     16  C           0     137.179 130.193 147.854  0.00  0.00     0.150 C 
ATOM     17  C           0     135.663 129.950 147.662  0.00  0.00     0.093 C 
ATOM     18  C           0     135.115 131.271 147.065  0.00  0.00     0.209 C 
ATOM     19  H           0     139.364 132.823 144.835  0.00  0.00     0.178 HD
ATOM     20  H           0     136.843 135.232 145.820  0.00  0.00     0.178 HD
ATOM     21  H           0     136.484 132.786 149.048  0.00  0.00     0.180 HD
ENDROOT
BRANCH   6  22
ATOM     22  C           0     136.677 131.672 143.787  0.00  0.00     0.206 C 
BRANCH  22  23
ATOM     23  O           0     135.984 132.235 142.643  0.00  0.00    -0.320 OA
BRANCH  23  24
ATOM     24  C           0     134.664 132.040 142.495  0.00  0.00     0.254 C 
ATOM     25  C           0     133.796 133.144 141.948  0.00  0.00     0.126 C 
ATOM     26  O           0     134.171 130.980 142.801  0.00  0.00    -0.266 OA
ENDBRANCH  23  24
ENDBRANCH  22  23
ENDBRANCH   6  22
BRANCH  18  27
ATOM     27  O           0     134.144 131.848 147.939  0.00  0.00    -0.362 OA
ATOM     28  H           0     134.308 132.800 147.950  0.00  0.00     0.213 HD
ENDBRANCH  18  27
BRANCH  18  29
ATOM     29  O           0     134.550 131.037 145.774  0.00  0.00    -0.362 OA
ATOM     30  H           0     133.882 131.722 145.634  0.00  0.00     0.213 HD
ENDBRANCH  18  29
TORSDOF 5
ENDMDL
MODEL 5
REMARK VINA RESULT:      -6.4      2.600      3.918
REMARK  5 active torsions:
REMARK  status: ('A' for Active; 'I' for Inactive)
REMARK    1  A    between atoms: C_6  and  C_7 
REMARK    2  A    between atoms: C_7  and  O_8 
REMARK    3  A    between atoms: O_8  and  C_9 
REMARK    4  A    between atoms: C_23  and  O_24 
REMARK    5  A    between atoms: C_23  and  O_25 
ROOT
ATOM      1  N           0     138.643 130.628 145.677  0.00  0.00    -0.235 N 
ATOM      2  H           0     138.553 129.707 145.969  0.00  0.00     0.174 HD
ATOM      3  H           0     139.501 131.074 145.739  0.00  0.00     0.174 HD
ATOM      4  C           0     137.611 131.262 145.194  0.00  0.00     0.672 C 
ATOM      5  N           0     136.368 130.666 145.079  0.00  0.00    -0.218 N 
ATOM      6  C           0     135.184 131.518 145.146  0.00  0.00     0.151 C 
ATOM      7  C           0     135.258 132.698 144.196  0.00  0.00     0.180 C 
ATOM      8  N           0     134.977 132.235 142.821  0.00  0.00    -0.216 N 
ATOM      9  C           0     135.830 132.902 141.976  0.00  0.00     0.670 C 
ATOM     10  N           0     135.639 133.027 140.692  0.00  0.00    -0.235 N 
ATOM     11  H           0     134.854 132.635 140.278  0.00  0.00     0.174 HD
ATOM     12  H           0     136.281 133.512 140.152  0.00  0.00     0.174 HD
ATOM     13  C           0     136.639 133.327 144.093  0.00  0.00     0.217 C 
ATOM     14  N           0     136.908 133.420 142.649  0.00  0.00    -0.191 N 
ATOM     15  N           0     137.688 132.564 144.773  0.00  0.00    -0.183 N 
ATOM     16  C           0     138.802 133.511 144.955  0.00  0.00     0.150 C 
ATOM     17  C           0     138.114 134.853 145.299  0.00  0.00     0.093 C 
ATOM     18  C           0     136.680 134.729 144.725  0.00  0.00     0.209 C 
ATOM     19  H           0     136.285 129.707 144.956  0.00  0.00     0.178 HD
ATOM     20  H           0     134.311 131.578 142.562  0.00  0.00     0.178 HD
ATOM     21  H           0     137.708 133.788 142.243  0.00  0.00     0.180 HD
ENDROOT
BRANCH   6  22
ATOM     22  C           0     135.034 132.043 146.574  0.00  0.00     0.206 C 
BRANCH  22  23
ATOM     23  O           0     134.926 130.925 147.493  0.00  0.00    -0.320 OA
BRANCH  23  24
ATOM     24  C           0     135.804 130.796 148.500  0.00  0.00     0.254 C 
ATOM     25  C           0     135.452 131.301 149.876  0.00  0.00     0.126 C 
ATOM     26  O           0     136.877 130.277 148.303  0.00  0.00    -0.266 OA
ENDBRANCH  23  24
ENDBRANCH  22  23
ENDBRANCH   6  22
BRANCH  18  27
ATOM     27  O           0     136.452 135.733 143.735  0.00  0.00    -0.362 OA
ATOM     28  H           0     136.022 135.296 142.988  0.00  0.00     0.213 HD
ENDBRANCH  18  27
BRANCH  18  29
ATOM     29  O           0     135.714 134.830 145.772  0.00  0.00    -0.362 OA
ATOM     30  H           0     135.478 135.766 145.846  0.00  0.00     0.213 HD
ENDBRANCH  18  29
TORSDOF 5
ENDMDL
MODEL 6
REMARK VINA RESULT:      -6.4      2.917      5.544
REMARK  5 active torsions:
REMARK  status: ('A' for Active; 'I' for Inactive)
REMARK    1  A    between atoms: C_6  and  C_7 
REMARK    2  A    between atoms: C_7  and  O_8 
REMARK    3  A    between atoms: O_8  and  C_9 
REMARK    4  A    between atoms: C_23  and  O_24 
REMARK    5  A    between atoms: C_23  and  O_25 
ROOT
ATOM      1  N           0     134.000 131.536 148.484  0.00  0.00    -0.235 N 
ATOM      2  H           0     133.240 130.951 148.342  0.00  0.00     0.174 HD
ATOM      3  H           0     134.069 132.051 149.303  0.00  0.00     0.174 HD
ATOM      4  C           0     134.932 131.625 147.577  0.00  0.00     0.672 C 
ATOM      5  N           0     134.882 130.905 146.396  0.00  0.00    -0.218 N 
ATOM      6  C           0     135.537 131.465 145.217  0.00  0.00     0.151 C 
ATOM      7  C           0     136.971 131.879 145.486  0.00  0.00     0.180 C 
ATOM      8  N           0     137.827 130.674 145.519  0.00  0.00    -0.216 N 
ATOM      9  C           0     138.741 130.843 146.530  0.00  0.00     0.670 C 
ATOM     10  N           0     139.859 130.177 146.625  0.00  0.00    -0.235 N 
ATOM     11  H           0     140.087 129.514 145.954  0.00  0.00     0.174 HD
ATOM     12  H           0     140.462 130.346 147.364  0.00  0.00     0.174 HD
ATOM     13  C           0     137.189 132.518 146.849  0.00  0.00     0.217 C 
ATOM     14  N           0     138.335 131.798 147.427  0.00  0.00    -0.191 N 
ATOM     15  N           0     136.023 132.441 147.730  0.00  0.00    -0.183 N 
ATOM     16  C           0     136.250 133.464 148.767  0.00  0.00     0.150 C 
ATOM     17  C           0     136.892 134.647 148.005  0.00  0.00     0.093 C 
ATOM     18  C           0     137.516 134.017 146.734  0.00  0.00     0.209 C 
ATOM     19  H           0     134.424 130.051 146.353  0.00  0.00     0.178 HD
ATOM     20  H           0     137.755 129.903 144.933  0.00  0.00     0.178 HD
ATOM     21  H           0     138.736 131.971 148.293  0.00  0.00     0.180 HD
ENDROOT
BRANCH   6  22
ATOM     22  C           0     134.750 132.691 144.750  0.00  0.00     0.206 C 
BRANCH  22  23
ATOM     23  O           0     135.333 133.202 143.524  0.00  0.00    -0.320 OA
BRANCH  23  24
ATOM     24  C           0     134.759 134.234 142.886  0.00  0.00     0.254 C 
ATOM     25  C           0     133.844 133.982 141.716  0.00  0.00     0.126 C 
ATOM     26  O           0     134.977 135.366 143.250  0.00  0.00    -0.266 OA
ENDBRANCH  23  24
ENDBRANCH  22  23
ENDBRANCH   6  22
BRANCH  18  27
ATOM     27  O           0     138.929 134.223 146.718  0.00  0.00    -0.362 OA
ATOM     28  H           0     139.137 134.673 145.888  0.00  0.00     0.213 HD
ENDBRANCH  18  27
BRANCH  18  29
ATOM     29  O           0     136.917 134.568 145.560  0.00  0.00    -0.362 OA
ATOM     30  H           0     137.581 134.519 144.858  0.00  0.00     0.213 HD
ENDBRANCH  18  29
TORSDOF 5
ENDMDL
MODEL 7
REMARK VINA RESULT:      -6.2      9.964     12.596
REMARK  5 active torsions:
REMARK  status: ('A' for Active; 'I' for Inactive)
REMARK    1  A    between atoms: C_6  and  C_7 
REMARK    2  A    between atoms: C_7  and  O_8 
REMARK    3  A    between atoms: O_8  and  C_9 
REMARK    4  A    between atoms: C_23  and  O_24 
REMARK    5  A    between atoms: C_23  and  O_25 
ROOT
ATOM      1  N           0     128.855 134.379 132.121  0.00  0.00    -0.235 N 
ATOM      2  H           0     128.138 133.988 131.596  0.00  0.00     0.174 HD
ATOM      3  H           0     129.012 135.335 132.089  0.00  0.00     0.174 HD
ATOM      4  C           0     129.601 133.619 132.872  0.00  0.00     0.672 C 
ATOM      5  N           0     129.411 132.251 132.956  0.00  0.00    -0.218 N 
ATOM      6  C           0     130.565 131.411 133.261  0.00  0.00     0.151 C 
ATOM      7  C           0     131.325 131.882 134.487  0.00  0.00     0.180 C 
ATOM      8  N           0     130.581 131.485 135.701  0.00  0.00    -0.216 N 
ATOM      9  C           0     130.668 132.523 136.598  0.00  0.00     0.670 C 
ATOM     10  N           0     130.456 132.403 137.879  0.00  0.00    -0.235 N 
ATOM     11  H           0     130.220 131.539 138.253  0.00  0.00     0.174 HD
ATOM     12  H           0     130.535 133.177 138.457  0.00  0.00     0.174 HD
ATOM     13  C           0     131.436 133.394 134.605  0.00  0.00     0.217 C 
ATOM     14  N           0     131.005 133.700 135.979  0.00  0.00    -0.191 N 
ATOM     15  N           0     130.627 134.124 133.628  0.00  0.00    -0.183 N 
ATOM     16  C           0     131.193 135.485 133.593  0.00  0.00     0.150 C 
ATOM     17  C           0     132.720 135.269 133.714  0.00  0.00     0.093 C 
ATOM     18  C           0     132.879 133.883 134.388  0.00  0.00     0.209 C 
ATOM     19  H           0     128.534 131.861 132.816  0.00  0.00     0.178 HD
ATOM     20  H           0     130.116 130.645 135.840  0.00  0.00     0.178 HD
ATOM     21  H           0     130.969 134.583 136.379  0.00  0.00     0.180 HD
ENDROOT
BRANCH   6  22
ATOM     22  C           0     131.514 131.419 132.061  0.00  0.00     0.206 C 
BRANCH  22  23
ATOM     23  O           0     132.618 130.511 132.311  0.00  0.00    -0.320 OA
BRANCH  23  24
ATOM     24  C           0     132.412 129.185 132.307  0.00  0.00     0.254 C 
ATOM     25  C           0     131.839 128.514 131.085  0.00  0.00     0.126 C 
ATOM     26  O           0     132.684 128.528 133.284  0.00  0.00    -0.266 OA
ENDBRANCH  23  24
ENDBRANCH  22  23
ENDBRANCH   6  22
BRANCH  18  27
ATOM     27  O           0     133.560 134.010 135.637  0.00  0.00    -0.362 OA
ATOM     28  H           0     133.278 134.850 136.025  0.00  0.00     0.213 HD
ENDBRANCH  18  27
BRANCH  18  29
ATOM     29  O           0     133.581 132.987 133.525  0.00  0.00    -0.362 OA
ATOM     30  H           0     133.192 132.111 133.655  0.00  0.00     0.213 HD
ENDBRANCH  18  29
TORSDOF 5
ENDMDL
MODEL 8
REMARK VINA RESULT:      -6.0      2.381      3.535
REMARK  5 active torsions:
REMARK  status: ('A' for Active; 'I' for Inactive)
REMARK    1  A    between atoms: C_6  and  C_7 
REMARK    2  A    between atoms: C_7  and  O_8 
REMARK    3  A    between atoms: O_8  and  C_9 
REMARK    4  A    between atoms: C_23  and  O_24 
REMARK    5  A    between atoms: C_23  and  O_25 
ROOT
ATOM      1  N           0     138.702 130.706 145.804  0.00  0.00    -0.235 N 
ATOM      2  H           0     138.739 130.060 146.527  0.00  0.00     0.174 HD
ATOM      3  H           0     139.489 130.872 145.263  0.00  0.00     0.174 HD
ATOM      4  C           0     137.593 131.344 145.556  0.00  0.00     0.672 C 
ATOM      5  N           0     136.442 131.136 146.295  0.00  0.00    -0.218 N 
ATOM      6  C           0     135.489 132.235 146.415  0.00  0.00     0.151 C 
ATOM      7  C           0     135.115 132.834 145.073  0.00  0.00     0.180 C 
ATOM      8  N           0     134.157 131.938 144.391  0.00  0.00    -0.216 N 
ATOM      9  C           0     134.487 131.916 143.057  0.00  0.00     0.670 C 
ATOM     10  N           0     133.675 131.540 142.108  0.00  0.00    -0.235 N 
ATOM     11  H           0     132.774 131.253 142.326  0.00  0.00     0.174 HD
ATOM     12  H           0     133.971 131.550 141.186  0.00  0.00     0.174 HD
ATOM     13  C           0     136.275 132.940 144.095  0.00  0.00     0.217 C 
ATOM     14  N           0     135.776 132.339 142.847  0.00  0.00    -0.191 N 
ATOM     15  N           0     137.493 132.268 144.549  0.00  0.00    -0.183 N 
ATOM     16  C           0     138.580 132.843 143.737  0.00  0.00     0.150 C 
ATOM     17  C           0     138.213 134.341 143.609  0.00  0.00     0.093 C 
ATOM     18  C           0     136.683 134.402 143.844  0.00  0.00     0.209 C 
ATOM     19  H           0     136.272 130.280 146.722  0.00  0.00     0.178 HD
ATOM     20  H           0     133.427 131.453 144.809  0.00  0.00     0.178 HD
ATOM     21  H           0     136.271 132.258 142.018  0.00  0.00     0.180 HD
ENDROOT
BRANCH   6  22
ATOM     22  C           0     136.104 133.329 147.288  0.00  0.00     0.206 C 
BRANCH  22  23
ATOM     23  O           0     136.342 132.809 148.622  0.00  0.00    -0.320 OA
BRANCH  23  24
ATOM     24  C           0     137.588 132.780 149.120  0.00  0.00     0.254 C 
ATOM     25  C           0     138.020 133.812 150.129  0.00  0.00     0.126 C 
ATOM     26  O           0     138.363 131.927 148.758  0.00  0.00    -0.266 OA
ENDBRANCH  23  24
ENDBRANCH  22  23
ENDBRANCH   6  22
BRANCH  18  27
ATOM     27  O           0     136.021 134.918 142.689  0.00  0.00    -0.362 OA
ATOM     28  H           0     135.171 134.460 142.625  0.00  0.00     0.213 HD
ENDBRANCH  18  27
BRANCH  18  29
ATOM     29  O           0     136.386 135.203 144.990  0.00  0.00    -0.362 OA
ATOM     30  H           0     136.938 134.872 145.712  0.00  0.00     0.213 HD
ENDBRANCH  18  29
TORSDOF 5
ENDMDL
MODEL 9
REMARK VINA RESULT:      -6.0      2.887      5.851
REMARK  5 active torsions:
REMARK  status: ('A' for Active; 'I' for Inactive)
REMARK    1  A    between atoms: C_6  and  C_7 
REMARK    2  A    between atoms: C_7  and  O_8 
REMARK    3  A    between atoms: O_8  and  C_9 
REMARK    4  A    between atoms: C_23  and  O_24 
REMARK    5  A    between atoms: C_23  and  O_25 
ROOT
ATOM      1  N           0     136.288 134.749 148.164  0.00  0.00    -0.235 N 
ATOM      2  H           0     135.442 135.180 148.361  0.00  0.00     0.174 HD
ATOM      3  H           0     137.116 135.247 148.242  0.00  0.00     0.174 HD
ATOM      4  C           0     136.312 133.497 147.801  0.00  0.00     0.672 C 
ATOM      5  N           0     135.158 132.742 147.682  0.00  0.00    -0.218 N 
ATOM      6  C           0     135.150 131.638 146.728  0.00  0.00     0.151 C 
ATOM      7  C           0     136.336 130.707 146.899  0.00  0.00     0.180 C 
ATOM      8  N           0     136.104 129.836 148.071  0.00  0.00    -0.216 N 
ATOM      9  C           0     137.300 129.706 148.733  0.00  0.00     0.670 C 
ATOM     10  N           0     137.569 128.750 149.579  0.00  0.00    -0.235 N 
ATOM     11  H           0     136.902 128.073 149.773  0.00  0.00     0.174 HD
ATOM     12  H           0     138.435 128.716 150.012  0.00  0.00     0.174 HD
ATOM     13  C           0     137.641 131.418 147.225  0.00  0.00     0.217 C 
ATOM     14  N           0     138.178 130.706 148.396  0.00  0.00    -0.191 N 
ATOM     15  N           0     137.481 132.845 147.508  0.00  0.00    -0.183 N 
ATOM     16  C           0     138.826 133.426 147.350  0.00  0.00     0.150 C 
ATOM     17  C           0     139.429 132.674 146.140  0.00  0.00     0.093 C 
ATOM     18  C           0     138.643 131.341 146.060  0.00  0.00     0.209 C 
ATOM     19  H           0     134.375 132.942 148.220  0.00  0.00     0.178 HD
ATOM     20  H           0     135.260 129.430 148.326  0.00  0.00     0.178 HD
ATOM     21  H           0     139.012 130.906 148.849  0.00  0.00     0.180 HD
ENDROOT
BRANCH   6  22
ATOM     22  C           0     135.175 132.210 145.309  0.00  0.00     0.206 C 
BRANCH  22  23
ATOM     23  O           0     135.013 131.133 144.350  0.00  0.00    -0.320 OA
BRANCH  23  24
ATOM     24  C           0     134.804 131.413 143.054  0.00  0.00     0.254 C 
ATOM     25  C           0     135.735 132.348 142.325  0.00  0.00     0.126 C 
ATOM     26  O           0     133.869 130.917 142.472  0.00  0.00    -0.266 OA
ENDBRANCH  23  24
ENDBRANCH  22  23
ENDBRANCH   6  22
BRANCH  18  27
ATOM     27  O           0     139.525 130.231 146.228  0.00  0.00    -0.362 OA
ATOM     28  H           0     139.202 129.730 146.989  0.00  0.00     0.213 HD
ENDBRANCH  18  27
BRANCH  18  29
ATOM     29  O           0     137.949 131.245 144.815  0.00  0.00    -0.362 OA
ATOM     30  H           0     137.005 131.291 145.017  0.00  0.00     0.213 HD
ENDBRANCH  18  29
TORSDOF 5
ENDMDL
