# created with PyMOL 2.3.4
@<TRIPOS>MOLECULE
ligand_out_0001
46 49 1                 
SMALL
USER_CHARGES
@<TRIPOS>ATOM
1	   N	139.454	130.542	145.861	N.3	1	UNK0	-0.235	
2	   N	138.485	132.477	144.939	N.3	1	UNK0	-0.218	
3	   N	136.574	134.508	146.249	N.3	1	UNK0	-0.216	
4	   N	136.226	135.281	148.458	N.3	1	UNK0	-0.235	
5	   N	136.322	132.982	147.913	N.3	1	UNK0	-0.191	
6	   N	137.336	131.254	146.557	N.3	1	UNK0	-0.183	
7	   N	134.795	133.687	140.810	N.pl3	1	UNK0	-0.335	
8	   N	132.895	135.288	138.432	N.pl3	1	UNK0	-0.359	
9	   N	131.415	134.022	135.248	N.pl3	1	UNK0	-0.288	
10	   C	138.465	131.388	145.793	C.3	1	UNK0	0.672	
11	   C	137.211	132.992	144.445	C.3	1	UNK0	0.151	
12	   C	136.214	133.252	145.557	C.3	1	UNK0	0.180	
13	   C	136.366	134.316	147.594	C.3	1	UNK0	0.670	
14	   C	136.232	132.208	146.664	C.3	1	UNK0	0.217	
15	   C	136.942	130.107	147.397	C.3	1	UNK0	0.150	
16	   C	135.421	129.958	147.153	C.3	1	UNK0	0.093	
17	   C	134.953	131.354	146.669	C.3	1	UNK0	0.209	
18	   C	136.610	131.974	143.474	C.2	1	UNK0	0.208	
19	   C	135.061	132.833	141.818	C.2	1	UNK0	0.360	
20	   C	133.411	133.915	140.390	C.3	1	UNK0	0.144	
21	   C	133.270	135.339	139.847	C.3	1	UNK0	0.142	
22	   C	133.847	135.161	137.487	C.2	1	UNK0	0.219	
23	   C	133.461	135.108	136.031	C.3	1	UNK0	0.123	
24	   C	131.942	135.223	135.900	C.3	1	UNK0	0.144	
25	   C	131.127	132.900	135.920	C.2	1	UNK0	0.226	
26	   C	130.602	131.861	134.953	C.3	1	UNK0	0.112	
27	   C	130.648	132.581	133.590	C.3	1	UNK0	0.112	
28	   C	131.187	133.953	133.931	C.2	1	UNK0	0.226	
29	   O	136.334	132.622	142.204	O.2	1	UNK0	-0.302	
30	   O	134.153	132.252	142.378	O.co2	1	UNK0	-0.239	
31	   O	135.014	135.089	137.808	O.2	1	UNK0	-0.274	
32	   O	131.258	132.744	137.115	O.2	1	UNK0	-0.273	
33	   O	131.383	134.848	133.137	O.2	1	UNK0	-0.273	
34	   O	133.988	131.897	147.573	O.2	1	UNK0	-0.362	
35	   O	134.408	131.268	145.351	O.2	1	UNK0	-0.362	
36	   H	140.238	130.666	145.302	 H	1	UNK0	0.174	
37	   H	139.409	129.792	146.474	 H	1	UNK0	0.174	
38	   H	136.267	136.205	148.164	 H	1	UNK0	0.174	
39	   H	136.081	135.076	149.395	 H	1	UNK0	0.174	
40	   H	139.324	132.888	144.677	 H	1	UNK0	0.178	
41	   H	136.898	135.320	145.831	 H	1	UNK0	0.178	
42	   H	136.344	132.612	148.810	 H	1	UNK0	0.180	
43	   H	135.521	134.150	140.363	 H	1	UNK0	0.164	
44	   H	131.961	135.346	138.176	 H	1	UNK0	0.162	
45	   H	134.466	132.144	148.376	 H	1	UNK0	0.213	
46	   H	133.991	132.121	145.164	 H	1	UNK0	0.213	
@<TRIPOS>BOND
1 1 10 1
2 1 36 1
3 1 37 1
4 2 11 1
5 2 40 1
6 3 13 1
7 3 41 1
8 4 38 1
9 4 39 1
10 5 42 1
11 6 15 1
12 7 20 1
13 7 43 1
14 8 22 1
15 8 44 1
16 9 25 1
17 9 28 1
18 2 10 1
19 6 10 1
20 11 12 1
21 11 18 1
22 3 12 1
23 12 14 1
24 4 13 1
25 5 13 1
26 5 14 1
27 6 14 1
28 14 17 1
29 15 16 1
30 16 17 1
31 17 34 2
32 17 35 2
33 18 29 2
34 7 19 1
35 19 30 2
36 20 21 1
37 8 21 1
38 22 23 1
39 22 31 2
40 23 24 1
41 9 24 1
42 25 26 1
43 25 32 2
44 26 27 1
45 27 28 1
46 28 33 2
47 19 29 2
48 34 45 1
49 35 46 1
@<TRIPOS>SUBSTRUCTURE
1	UNK0	1	GROUP	1 ****	UNK
