# created with PyMOL 2.3.4
@<TRIPOS>MOLECULE
ligand_out_0001
46 49 1                 
SMALL
USER_CHARGES
@<TRIPOS>ATOM
1	   N	130.978	133.395	136.539	N.3	1	UNK0	-0.235	
2	   N	130.775	134.958	134.793	N.3	1	UNK0	-0.218	
3	   N	129.323	134.676	132.090	N.3	1	UNK0	-0.216	
4	   N	127.449	133.450	131.327	N.3	1	UNK0	-0.235	
5	   N	129.216	132.452	132.542	N.3	1	UNK0	-0.191	
6	   N	130.846	132.677	134.315	N.3	1	UNK0	-0.183	
7	   N	133.599	135.740	136.861	N.pl3	1	UNK0	-0.335	
8	   N	133.637	134.313	140.292	N.pl3	1	UNK0	-0.359	
9	   N	135.024	132.876	143.410	N.pl3	1	UNK0	-0.288	
10	   C	130.869	133.661	135.268	C.3	1	UNK0	0.672	
11	   C	131.272	135.239	133.449	C.3	1	UNK0	0.151	
12	   C	130.714	134.288	132.408	C.3	1	UNK0	0.180	
13	   C	128.592	133.521	131.949	C.3	1	UNK0	0.670	
14	   C	130.591	132.848	132.885	C.3	1	UNK0	0.217	
15	   C	131.125	131.240	134.492	C.3	1	UNK0	0.150	
16	   C	131.952	130.854	133.243	C.3	1	UNK0	0.093	
17	   C	131.594	131.922	132.177	C.3	1	UNK0	0.209	
18	   C	132.797	135.127	133.451	C.2	1	UNK0	0.208	
19	   C	133.867	135.287	135.621	C.2	1	UNK0	0.360	
20	   C	134.173	135.065	138.027	C.3	1	UNK0	0.144	
21	   C	133.241	135.240	139.229	C.3	1	UNK0	0.142	
22	   C	132.737	133.449	140.801	C.2	1	UNK0	0.219	
23	   C	133.142	132.495	141.895	C.3	1	UNK0	0.123	
24	   C	134.665	132.501	142.040	C.3	1	UNK0	0.144	
25	   C	135.228	134.146	143.783	C.2	1	UNK0	0.226	
26	   C	135.576	134.181	145.256	C.3	1	UNK0	0.112	
27	   C	135.548	132.696	145.669	C.3	1	UNK0	0.112	
28	   C	135.182	131.978	144.390	C.2	1	UNK0	0.226	
29	   O	133.338	135.908	134.549	O.2	1	UNK0	-0.302	
30	   O	134.584	134.318	135.469	O.co2	1	UNK0	-0.239	
31	   O	131.600	133.437	140.378	O.2	1	UNK0	-0.274	
32	   O	135.139	135.113	143.059	O.2	1	UNK0	-0.273	
33	   O	135.051	130.778	144.270	O.2	1	UNK0	-0.273	
34	   O	130.993	131.305	131.036	O.2	1	UNK0	-0.362	
35	   O	132.760	132.652	131.793	O.2	1	UNK0	-0.362	
36	   H	130.996	134.117	137.186	 H	1	UNK0	0.174	
37	   H	131.038	132.474	136.838	 H	1	UNK0	0.174	
38	   H	127.063	134.246	130.929	 H	1	UNK0	0.174	
39	   H	126.983	132.601	131.264	 H	1	UNK0	0.174	
40	   H	130.389	135.661	135.338	 H	1	UNK0	0.178	
41	   H	128.987	135.581	131.998	 H	1	UNK0	0.178	
42	   H	128.818	131.582	132.705	 H	1	UNK0	0.180	
43	   H	133.026	136.513	136.982	 H	1	UNK0	0.164	
44	   H	134.546	134.322	140.631	 H	1	UNK0	0.162	
45	   H	130.111	131.020	131.306	 H	1	UNK0	0.213	
46	   H	133.306	132.747	132.586	 H	1	UNK0	0.213	
@<TRIPOS>BOND
1 1 10 1
2 1 36 1
3 1 37 1
4 2 11 1
5 2 40 1
6 3 13 1
7 3 41 1
8 4 38 1
9 4 39 1
10 5 42 1
11 6 15 1
12 7 20 1
13 7 43 1
14 8 22 1
15 8 44 1
16 9 25 1
17 9 28 1
18 2 10 1
19 6 10 1
20 11 12 1
21 11 18 1
22 3 12 1
23 12 14 1
24 4 13 1
25 5 13 1
26 5 14 1
27 6 14 1
28 14 17 1
29 15 16 1
30 16 17 1
31 17 34 2
32 17 35 2
33 18 29 2
34 7 19 1
35 19 30 2
36 20 21 1
37 8 21 1
38 22 23 1
39 22 31 2
40 23 24 1
41 9 24 1
42 25 26 1
43 25 32 2
44 26 27 1
45 27 28 1
46 28 33 2
47 19 29 2
48 34 45 1
49 35 46 1
@<TRIPOS>SUBSTRUCTURE
1	UNK0	1	GROUP	1 ****	UNK
