MODEL 1
REMARK VINA RESULT:      -8.5      0.000      0.000
REMARK  11 active torsions:
REMARK  status: ('A' for Active; 'I' for Inactive)
REMARK    1  A    between atoms: C_6  and  C_7 
REMARK    2  A    between atoms: C_7  and  O_8 
REMARK    3  A    between atoms: O_8  and  C_9 
REMARK       I    between atoms: C_9  and  N_10 
REMARK    4  A    between atoms: N_10  and  C_11 
REMARK    5  A    between atoms: C_11  and  C_12 
REMARK    6  A    between atoms: C_12  and  N_13 
REMARK       I    between atoms: N_13  and  C_14 
REMARK    7  A    between atoms: C_14  and  C_15 
REMARK    8  A    between atoms: C_15  and  C_16 
REMARK    9  A    between atoms: C_16  and  N_17 
REMARK   10  A    between atoms: C_37  and  O_38 
REMARK   11  A    between atoms: C_37  and  O_39 
ROOT
ATOM      1  N           0     130.978 133.395 136.539  0.00  0.00    -0.235 N 
ATOM      2  H           0     130.996 134.117 137.186  0.00  0.00     0.174 HD
ATOM      3  H           0     131.038 132.474 136.838  0.00  0.00     0.174 HD
ATOM      4  C           0     130.869 133.661 135.268  0.00  0.00     0.672 C 
ATOM      5  N           0     130.775 134.958 134.793  0.00  0.00    -0.218 N 
ATOM      6  C           0     131.272 135.239 133.449  0.00  0.00     0.151 C 
ATOM      7  C           0     130.714 134.288 132.408  0.00  0.00     0.180 C 
ATOM      8  N           0     129.323 134.676 132.090  0.00  0.00    -0.216 N 
ATOM      9  C           0     128.592 133.521 131.949  0.00  0.00     0.670 C 
ATOM     10  N           0     127.449 133.450 131.327  0.00  0.00    -0.235 N 
ATOM     11  H           0     127.063 134.246 130.929  0.00  0.00     0.174 HD
ATOM     12  H           0     126.983 132.601 131.264  0.00  0.00     0.174 HD
ATOM     13  C           0     130.591 132.848 132.885  0.00  0.00     0.217 C 
ATOM     14  N           0     129.216 132.452 132.542  0.00  0.00    -0.191 N 
ATOM     15  N           0     130.846 132.677 134.315  0.00  0.00    -0.183 N 
ATOM     16  C           0     131.125 131.240 134.492  0.00  0.00     0.150 C 
ATOM     17  C           0     131.952 130.854 133.243  0.00  0.00     0.093 C 
ATOM     18  C           0     131.594 131.922 132.177  0.00  0.00     0.209 C 
ATOM     19  H           0     130.389 135.661 135.338  0.00  0.00     0.178 HD
ATOM     20  H           0     128.987 135.581 131.998  0.00  0.00     0.178 HD
ATOM     21  H           0     128.818 131.582 132.705  0.00  0.00     0.180 HD
ENDROOT
BRANCH   6  22
ATOM     22  C           0     132.797 135.127 133.451  0.00  0.00     0.208 C 
BRANCH  22  23
ATOM     23  O           0     133.338 135.908 134.549  0.00  0.00    -0.302 OA
BRANCH  23  24
ATOM     24  C           0     133.867 135.287 135.621  0.00  0.00     0.360 C 
ATOM     25  N           0     133.599 135.740 136.861  0.00  0.00    -0.335 N 
ATOM     26  H           0     133.026 136.513 136.982  0.00  0.00     0.164 HD
ATOM     27  O           0     134.584 134.318 135.469  0.00  0.00    -0.239 OA
BRANCH  25  28
ATOM     28  C           0     134.173 135.065 138.027  0.00  0.00     0.144 C 
BRANCH  28  29
ATOM     29  C           0     133.241 135.240 139.229  0.00  0.00     0.142 C 
BRANCH  29  30
ATOM     30  N           0     133.637 134.313 140.292  0.00  0.00    -0.359 N 
ATOM     31  C           0     132.737 133.449 140.801  0.00  0.00     0.219 C 
ATOM     32  O           0     131.600 133.437 140.378  0.00  0.00    -0.274 OA
ATOM     33  H           0     134.546 134.322 140.631  0.00  0.00     0.162 HD
BRANCH  31  34
ATOM     34  C           0     133.142 132.495 141.895  0.00  0.00     0.123 C 
BRANCH  34  35
ATOM     35  C           0     134.665 132.501 142.040  0.00  0.00     0.144 C 
BRANCH  35  36
ATOM     36  N           0     135.024 132.876 143.410  0.00  0.00    -0.288 N 
ATOM     37  C           0     135.228 134.146 143.783  0.00  0.00     0.226 A 
ATOM     38  C           0     135.576 134.181 145.256  0.00  0.00     0.112 A 
ATOM     39  O           0     135.139 135.113 143.059  0.00  0.00    -0.273 OA
ATOM     40  C           0     135.548 132.696 145.669  0.00  0.00     0.112 A 
ATOM     41  C           0     135.182 131.978 144.390  0.00  0.00     0.226 A 
ATOM     42  O           0     135.051 130.778 144.270  0.00  0.00    -0.273 OA
ENDBRANCH  35  36
ENDBRANCH  34  35
ENDBRANCH  31  34
ENDBRANCH  29  30
ENDBRANCH  28  29
ENDBRANCH  25  28
ENDBRANCH  23  24
ENDBRANCH  22  23
ENDBRANCH   6  22
BRANCH  18  43
ATOM     43  O           0     130.993 131.305 131.036  0.00  0.00    -0.362 OA
ATOM     44  H           0     130.111 131.020 131.306  0.00  0.00     0.213 HD
ENDBRANCH  18  43
BRANCH  18  45
ATOM     45  O           0     132.760 132.652 131.793  0.00  0.00    -0.362 OA
ATOM     46  H           0     133.306 132.747 132.586  0.00  0.00     0.213 HD
ENDBRANCH  18  45
TORSDOF 11
ENDMDL
MODEL 2
REMARK VINA RESULT:      -8.4      2.031     10.865
REMARK  11 active torsions:
REMARK  status: ('A' for Active; 'I' for Inactive)
REMARK    1  A    between atoms: C_6  and  C_7 
REMARK    2  A    between atoms: C_7  and  O_8 
REMARK    3  A    between atoms: O_8  and  C_9 
REMARK       I    between atoms: C_9  and  N_10 
REMARK    4  A    between atoms: N_10  and  C_11 
REMARK    5  A    between atoms: C_11  and  C_12 
REMARK    6  A    between atoms: C_12  and  N_13 
REMARK       I    between atoms: N_13  and  C_14 
REMARK    7  A    between atoms: C_14  and  C_15 
REMARK    8  A    between atoms: C_15  and  C_16 
REMARK    9  A    between atoms: C_16  and  N_17 
REMARK   10  A    between atoms: C_37  and  O_38 
REMARK   11  A    between atoms: C_37  and  O_39 
ROOT
ATOM      1  N           0     135.559 136.108 143.195  0.00  0.00    -0.235 N 
ATOM      2  H           0     134.784 136.627 142.927  0.00  0.00     0.174 HD
ATOM      3  H           0     136.449 136.486 143.112  0.00  0.00     0.174 HD
ATOM      4  C           0     135.405 134.904 143.670  0.00  0.00     0.672 C 
ATOM      5  N           0     134.157 134.324 143.813  0.00  0.00    -0.218 N 
ATOM      6  C           0     134.058 132.869 143.735  0.00  0.00     0.151 C 
ATOM      7  C           0     135.040 132.166 144.652  0.00  0.00     0.180 C 
ATOM      8  N           0     134.540 132.231 146.042  0.00  0.00    -0.216 N 
ATOM      9  C           0     135.619 132.457 146.861  0.00  0.00     0.670 C 
ATOM     10  N           0     135.628 132.217 148.142  0.00  0.00    -0.235 N 
ATOM     11  H           0     134.837 131.858 148.574  0.00  0.00     0.174 HD
ATOM     12  H           0     136.425 132.400 148.664  0.00  0.00     0.174 HD
ATOM     13  C           0     136.406 132.830 144.725  0.00  0.00     0.217 C 
ATOM     14  N           0     136.686 132.964 146.164  0.00  0.00    -0.191 N 
ATOM     15  N           0     136.467 134.130 144.056  0.00  0.00    -0.183 N 
ATOM     16  C           0     137.902 134.390 143.840  0.00  0.00     0.150 C 
ATOM     17  C           0     138.490 133.008 143.466  0.00  0.00     0.093 C 
ATOM     18  C           0     137.497 131.975 144.057  0.00  0.00     0.209 C 
ATOM     19  H           0     133.368 134.869 143.961  0.00  0.00     0.178 HD
ATOM     20  H           0     133.617 132.134 146.324  0.00  0.00     0.178 HD
ATOM     21  H           0     137.490 133.343 146.553  0.00  0.00     0.180 HD
ENDROOT
BRANCH   6  22
ATOM     22  C           0     134.330 132.431 142.295  0.00  0.00     0.208 C 
BRANCH  22  23
ATOM     23  O           0     133.074 132.342 141.571  0.00  0.00    -0.302 OA
BRANCH  23  24
ATOM     24  C           0     132.718 133.323 140.719  0.00  0.00     0.360 C 
ATOM     25  N           0     133.616 134.259 140.356  0.00  0.00    -0.335 N 
ATOM     26  H           0     134.519 134.228 140.708  0.00  0.00     0.164 HD
ATOM     27  O           0     131.586 133.362 140.277  0.00  0.00    -0.239 OA
BRANCH  25  28
ATOM     28  C           0     133.229 135.325 139.429  0.00  0.00     0.144 C 
BRANCH  28  29
ATOM     29  C           0     133.982 135.151 138.108  0.00  0.00     0.142 C 
BRANCH  29  30
ATOM     30  N           0     133.041 135.268 136.990  0.00  0.00    -0.359 N 
ATOM     31  C           0     133.495 135.568 135.758  0.00  0.00     0.219 C 
ATOM     32  O           0     134.681 135.741 135.573  0.00  0.00    -0.274 OA
ATOM     33  H           0     132.092 135.130 137.138  0.00  0.00     0.162 HD
BRANCH  31  34
ATOM     34  C           0     132.528 135.689 134.608  0.00  0.00     0.123 C 
BRANCH  34  35
ATOM     35  C           0     131.149 135.193 135.045  0.00  0.00     0.144 C 
BRANCH  35  36
ATOM     36  N           0     130.928 133.841 134.526  0.00  0.00    -0.288 N 
ATOM     37  C           0     130.506 133.605 133.277  0.00  0.00     0.226 A 
ATOM     38  C           0     130.388 132.111 133.067  0.00  0.00     0.112 A 
ATOM     39  O           0     130.264 134.452 132.446  0.00  0.00    -0.273 OA
ATOM     40  C           0     130.809 131.520 134.427  0.00  0.00     0.112 A 
ATOM     41  C           0     131.127 132.741 135.262  0.00  0.00     0.226 A 
ATOM     42  O           0     131.502 132.726 136.415  0.00  0.00    -0.273 OA
ENDBRANCH  35  36
ENDBRANCH  34  35
ENDBRANCH  31  34
ENDBRANCH  29  30
ENDBRANCH  28  29
ENDBRANCH  25  28
ENDBRANCH  23  24
ENDBRANCH  22  23
ENDBRANCH   6  22
BRANCH  18  43
ATOM     43  O           0     138.152 131.150 145.022  0.00  0.00    -0.362 OA
ATOM     44  H           0     139.013 131.552 145.195  0.00  0.00     0.213 HD
ENDBRANCH  18  43
BRANCH  18  45
ATOM     45  O           0     136.933 131.175 143.016  0.00  0.00    -0.362 OA
ATOM     46  H           0     135.979 131.143 143.174  0.00  0.00     0.213 HD
ENDBRANCH  18  45
TORSDOF 11
ENDMDL
MODEL 3
REMARK VINA RESULT:      -8.3      3.039     12.036
REMARK  11 active torsions:
REMARK  status: ('A' for Active; 'I' for Inactive)
REMARK    1  A    between atoms: C_6  and  C_7 
REMARK    2  A    between atoms: C_7  and  O_8 
REMARK    3  A    between atoms: O_8  and  C_9 
REMARK       I    between atoms: C_9  and  N_10 
REMARK    4  A    between atoms: N_10  and  C_11 
REMARK    5  A    between atoms: C_11  and  C_12 
REMARK    6  A    between atoms: C_12  and  N_13 
REMARK       I    between atoms: N_13  and  C_14 
REMARK    7  A    between atoms: C_14  and  C_15 
REMARK    8  A    between atoms: C_15  and  C_16 
REMARK    9  A    between atoms: C_16  and  N_17 
REMARK   10  A    between atoms: C_37  and  O_38 
REMARK   11  A    between atoms: C_37  and  O_39 
ROOT
ATOM      1  N           0     139.719 130.645 146.185  0.00  0.00    -0.235 N 
ATOM      2  H           0     140.525 130.820 145.674  0.00  0.00     0.174 HD
ATOM      3  H           0     139.680 129.883 146.784  0.00  0.00     0.174 HD
ATOM      4  C           0     138.690 131.437 146.071  0.00  0.00     0.672 C 
ATOM      5  N           0     138.700 132.540 145.235  0.00  0.00    -0.218 N 
ATOM      6  C           0     137.430 132.994 144.675  0.00  0.00     0.151 C 
ATOM      7  C           0     136.358 133.181 145.732  0.00  0.00     0.180 C 
ATOM      8  N           0     136.608 134.443 146.460  0.00  0.00    -0.216 N 
ATOM      9  C           0     136.335 134.217 147.787  0.00  0.00     0.670 C 
ATOM     10  N           0     136.093 135.159 148.655  0.00  0.00    -0.235 N 
ATOM     11  H           0     136.101 136.089 148.377  0.00  0.00     0.174 HD
ATOM     12  H           0     135.907 134.931 149.580  0.00  0.00     0.174 HD
ATOM     13  C           0     136.370 132.121 146.823  0.00  0.00     0.217 C 
ATOM     14  N           0     136.346 132.878 148.086  0.00  0.00    -0.191 N 
ATOM     15  N           0     137.529 131.230 146.767  0.00  0.00    -0.183 N 
ATOM     16  C           0     137.151 130.050 147.567  0.00  0.00     0.150 C 
ATOM     17  C           0     135.657 129.823 147.233  0.00  0.00     0.093 C 
ATOM     18  C           0     135.141 131.200 146.742  0.00  0.00     0.209 C 
ATOM     19  H           0     139.528 133.000 145.027  0.00  0.00     0.178 HD
ATOM     20  H           0     136.912 135.278 146.072  0.00  0.00     0.178 HD
ATOM     21  H           0     136.337 132.495 148.977  0.00  0.00     0.180 HD
ENDROOT
BRANCH   6  22
ATOM     22  C           0     136.941 131.962 143.657  0.00  0.00     0.208 C 
BRANCH  22  23
ATOM     23  O           0     136.606 132.631 142.413  0.00  0.00    -0.302 OA
BRANCH  23  24
ATOM     24  C           0     135.321 132.706 142.014  0.00  0.00     0.360 C 
ATOM     25  N           0     134.969 133.561 141.034  0.00  0.00    -0.335 N 
ATOM     26  H           0     135.640 134.123 140.616  0.00  0.00     0.164 HD
ATOM     27  O           0     134.481 132.001 142.537  0.00  0.00    -0.239 OA
BRANCH  25  28
ATOM     28  C           0     133.572 133.641 140.599  0.00  0.00     0.144 C 
BRANCH  28  29
ATOM     29  C           0     133.253 135.075 140.171  0.00  0.00     0.142 C 
BRANCH  29  30
ATOM     30  N           0     134.006 135.401 138.957  0.00  0.00    -0.359 N 
ATOM     31  C           0     133.538 135.021 137.752  0.00  0.00     0.219 C 
ATOM     32  O           0     132.493 134.410 137.672  0.00  0.00    -0.274 OA
ATOM     33  H           0     134.841 135.891 139.021  0.00  0.00     0.162 HD
BRANCH  31  34
ATOM     34  C           0     134.312 135.357 136.503  0.00  0.00     0.123 C 
BRANCH  34  35
ATOM     35  C           0     133.346 135.488 135.323  0.00  0.00     0.144 C 
BRANCH  35  36
ATOM     36  N           0     133.796 134.629 134.225  0.00  0.00    -0.288 N 
ATOM     37  C           0     133.390 133.361 134.085  0.00  0.00     0.226 A 
ATOM     38  C           0     134.036 132.766 132.853  0.00  0.00     0.112 A 
ATOM     39  O           0     132.622 132.784 134.823  0.00  0.00    -0.273 OA
ATOM     40  C           0     134.902 133.918 132.306  0.00  0.00     0.112 A 
ATOM     41  C           0     134.651 135.046 133.283  0.00  0.00     0.226 A 
ATOM     42  O           0     135.144 136.152 133.222  0.00  0.00    -0.273 OA
ENDBRANCH  35  36
ENDBRANCH  34  35
ENDBRANCH  31  34
ENDBRANCH  29  30
ENDBRANCH  28  29
ENDBRANCH  25  28
ENDBRANCH  23  24
ENDBRANCH  22  23
ENDBRANCH   6  22
BRANCH  18  43
ATOM     43  O           0     134.098 131.675 147.597  0.00  0.00    -0.362 OA
ATOM     44  H           0     133.369 131.045 147.524  0.00  0.00     0.213 HD
ENDBRANCH  18  43
BRANCH  18  45
ATOM     45  O           0     134.677 131.107 145.394  0.00  0.00    -0.362 OA
ATOM     46  H           0     135.053 130.296 145.024  0.00  0.00     0.213 HD
ENDBRANCH  18  45
TORSDOF 11
ENDMDL
MODEL 4
REMARK VINA RESULT:      -8.3      1.893      2.723
REMARK  11 active torsions:
REMARK  status: ('A' for Active; 'I' for Inactive)
REMARK    1  A    between atoms: C_6  and  C_7 
REMARK    2  A    between atoms: C_7  and  O_8 
REMARK    3  A    between atoms: O_8  and  C_9 
REMARK       I    between atoms: C_9  and  N_10 
REMARK    4  A    between atoms: N_10  and  C_11 
REMARK    5  A    between atoms: C_11  and  C_12 
REMARK    6  A    between atoms: C_12  and  N_13 
REMARK       I    between atoms: N_13  and  C_14 
REMARK    7  A    between atoms: C_14  and  C_15 
REMARK    8  A    between atoms: C_15  and  C_16 
REMARK    9  A    between atoms: C_16  and  N_17 
REMARK   10  A    between atoms: C_37  and  O_38 
REMARK   11  A    between atoms: C_37  and  O_39 
ROOT
ATOM      1  N           0     133.751 134.085 132.081  0.00  0.00    -0.235 N 
ATOM      2  H           0     134.613 134.212 132.507  0.00  0.00     0.174 HD
ATOM      3  H           0     133.638 134.296 131.141  0.00  0.00     0.174 HD
ATOM      4  C           0     132.744 133.626 132.770  0.00  0.00     0.672 C 
ATOM      5  N           0     132.856 133.305 134.112  0.00  0.00    -0.218 N 
ATOM      6  C           0     131.664 133.407 134.949  0.00  0.00     0.151 C 
ATOM      7  C           0     130.472 132.676 134.361  0.00  0.00     0.180 C 
ATOM      8  N           0     130.633 131.224 134.585  0.00  0.00    -0.216 N 
ATOM      9  C           0     130.201 130.579 133.452  0.00  0.00     0.670 C 
ATOM     10  N           0     129.856 129.322 133.412  0.00  0.00    -0.235 N 
ATOM     11  H           0     129.898 128.782 134.217  0.00  0.00     0.174 HD
ATOM     12  H           0     129.559 128.927 132.577  0.00  0.00     0.174 HD
ATOM     13  C           0     130.350 132.801 132.850  0.00  0.00     0.217 C 
ATOM     14  N           0     130.174 131.421 132.369  0.00  0.00    -0.191 N 
ATOM     15  N           0     131.507 133.434 132.215  0.00  0.00    -0.183 N 
ATOM     16  C           0     131.033 133.866 130.887  0.00  0.00     0.150 C 
ATOM     17  C           0     129.591 134.366 131.138  0.00  0.00     0.093 C 
ATOM     18  C           0     129.139 133.656 132.440  0.00  0.00     0.209 C 
ATOM     19  H           0     133.704 133.019 134.486  0.00  0.00     0.178 HD
ATOM     20  H           0     130.982 130.803 135.386  0.00  0.00     0.178 HD
ATOM     21  H           0     130.056 131.152 131.444  0.00  0.00     0.180 HD
ENDROOT
BRANCH   6  22
ATOM     22  C           0     131.302 134.884 135.115  0.00  0.00     0.208 C 
BRANCH  22  23
ATOM     23  O           0     132.517 135.667 135.254  0.00  0.00    -0.302 OA
BRANCH  23  24
ATOM     24  C           0     133.388 135.388 136.242  0.00  0.00     0.360 C 
ATOM     25  N           0     132.974 135.384 137.524  0.00  0.00    -0.335 N 
ATOM     26  H           0     132.048 135.582 137.735  0.00  0.00     0.164 HD
ATOM     27  O           0     134.548 135.140 135.977  0.00  0.00    -0.239 OA
BRANCH  25  28
ATOM     28  C           0     133.922 135.080 138.599  0.00  0.00     0.144 C 
BRANCH  28  29
ATOM     29  C           0     133.157 134.854 139.905  0.00  0.00     0.142 C 
BRANCH  29  30
ATOM     30  N           0     133.938 133.979 140.783  0.00  0.00    -0.359 N 
ATOM     31  C           0     133.332 132.972 141.441  0.00  0.00     0.219 C 
ATOM     32  O           0     132.141 132.788 141.307  0.00  0.00    -0.274 OA
ATOM     33  H           0     134.891 134.126 140.891  0.00  0.00     0.162 HD
BRANCH  31  34
ATOM     34  C           0     134.135 132.071 142.345  0.00  0.00     0.123 C 
BRANCH  34  35
ATOM     35  C           0     134.485 132.819 143.632  0.00  0.00     0.144 C 
BRANCH  35  36
ATOM     36  N           0     135.847 133.351 143.534  0.00  0.00    -0.288 N 
ATOM     37  C           0     136.104 134.654 143.364  0.00  0.00     0.226 A 
ATOM     38  C           0     137.602 134.861 143.308  0.00  0.00     0.112 A 
ATOM     39  O           0     135.271 135.529 143.276  0.00  0.00    -0.273 OA
ATOM     40  C           0     138.170 133.436 143.467  0.00  0.00     0.112 A 
ATOM     41  C           0     136.935 132.575 143.602  0.00  0.00     0.226 A 
ATOM     42  O           0     136.930 131.371 143.748  0.00  0.00    -0.273 OA
ENDBRANCH  35  36
ENDBRANCH  34  35
ENDBRANCH  31  34
ENDBRANCH  29  30
ENDBRANCH  28  29
ENDBRANCH  25  28
ENDBRANCH  23  24
ENDBRANCH  22  23
ENDBRANCH   6  22
BRANCH  18  43
ATOM     43  O           0     128.001 132.830 132.187  0.00  0.00    -0.362 OA
ATOM     44  H           0     127.304 133.409 131.853  0.00  0.00     0.213 HD
ENDBRANCH  18  43
BRANCH  18  45
ATOM     45  O           0     128.843 134.617 133.455  0.00  0.00    -0.362 OA
ATOM     46  H           0     129.423 134.421 134.204  0.00  0.00     0.213 HD
ENDBRANCH  18  45
TORSDOF 11
ENDMDL
MODEL 5
REMARK VINA RESULT:      -8.2      2.424     11.595
REMARK  11 active torsions:
REMARK  status: ('A' for Active; 'I' for Inactive)
REMARK    1  A    between atoms: C_6  and  C_7 
REMARK    2  A    between atoms: C_7  and  O_8 
REMARK    3  A    between atoms: O_8  and  C_9 
REMARK       I    between atoms: C_9  and  N_10 
REMARK    4  A    between atoms: N_10  and  C_11 
REMARK    5  A    between atoms: C_11  and  C_12 
REMARK    6  A    between atoms: C_12  and  N_13 
REMARK       I    between atoms: N_13  and  C_14 
REMARK    7  A    between atoms: C_14  and  C_15 
REMARK    8  A    between atoms: C_15  and  C_16 
REMARK    9  A    between atoms: C_16  and  N_17 
REMARK   10  A    between atoms: C_37  and  O_38 
REMARK   11  A    between atoms: C_37  and  O_39 
ROOT
ATOM      1  N           0     135.133 130.504 143.312  0.00  0.00    -0.235 N 
ATOM      2  H           0     134.982 130.359 142.365  0.00  0.00     0.174 HD
ATOM      3  H           0     134.671 129.957 143.966  0.00  0.00     0.174 HD
ATOM      4  C           0     135.960 131.431 143.705  0.00  0.00     0.672 C 
ATOM      5  N           0     136.646 132.233 142.810  0.00  0.00    -0.218 N 
ATOM      6  C           0     137.029 133.576 143.238  0.00  0.00     0.151 C 
ATOM      7  C           0     137.757 133.582 144.569  0.00  0.00     0.180 C 
ATOM      8  N           0     139.151 133.136 144.362  0.00  0.00    -0.216 N 
ATOM      9  C           0     139.491 132.331 145.422  0.00  0.00     0.670 C 
ATOM     10  N           0     140.717 132.056 145.768  0.00  0.00    -0.235 N 
ATOM     11  H           0     141.458 132.428 145.265  0.00  0.00     0.174 HD
ATOM     12  H           0     140.888 131.478 146.529  0.00  0.00     0.174 HD
ATOM     13  C           0     137.204 132.592 145.583  0.00  0.00     0.217 C 
ATOM     14  N           0     138.380 131.853 146.070  0.00  0.00    -0.191 N 
ATOM     15  N           0     136.203 131.678 145.031  0.00  0.00    -0.183 N 
ATOM     16  C           0     135.484 131.136 146.199  0.00  0.00     0.150 C 
ATOM     17  C           0     135.364 132.337 147.167  0.00  0.00     0.093 C 
ATOM     18  C           0     136.507 133.300 146.757  0.00  0.00     0.209 C 
ATOM     19  H           0     136.868 131.912 141.923  0.00  0.00     0.178 HD
ATOM     20  H           0     139.722 133.369 143.614  0.00  0.00     0.178 HD
ATOM     21  H           0     138.372 131.150 146.739  0.00  0.00     0.180 HD
ENDROOT
BRANCH   6  22
ATOM     22  C           0     135.768 134.433 143.364  0.00  0.00     0.208 C 
BRANCH  22  23
ATOM     23  O           0     134.711 133.861 142.548  0.00  0.00    -0.302 OA
BRANCH  23  24
ATOM     24  C           0     134.060 134.630 141.655  0.00  0.00     0.360 C 
ATOM     25  N           0     133.813 134.161 140.416  0.00  0.00    -0.335 N 
ATOM     26  H           0     134.104 133.270 140.168  0.00  0.00     0.164 HD
ATOM     27  O           0     133.695 135.747 141.966  0.00  0.00    -0.239 OA
BRANCH  25  28
ATOM     28  C           0     133.104 134.997 139.444  0.00  0.00     0.144 C 
BRANCH  28  29
ATOM     29  C           0     134.002 135.240 138.229  0.00  0.00     0.142 C 
BRANCH  29  30
ATOM     30  N           0     133.179 135.299 137.018  0.00  0.00    -0.359 N 
ATOM     31  C           0     133.758 135.521 135.821  0.00  0.00     0.219 C 
ATOM     32  O           0     134.959 135.671 135.746  0.00  0.00    -0.274 OA
ATOM     33  H           0     132.219 135.179 137.077  0.00  0.00     0.162 HD
BRANCH  31  34
ATOM     34  C           0     132.913 135.581 134.575  0.00  0.00     0.123 C 
BRANCH  34  35
ATOM     35  C           0     131.458 135.263 134.927  0.00  0.00     0.144 C 
BRANCH  35  36
ATOM     36  N           0     131.137 133.901 134.495  0.00  0.00    -0.288 N 
ATOM     37  C           0     131.156 132.854 135.330  0.00  0.00     0.226 A 
ATOM     38  C           0     130.773 131.604 134.568  0.00  0.00     0.112 A 
ATOM     39  O           0     131.429 132.901 136.510  0.00  0.00    -0.273 OA
ATOM     40  C           0     130.538 132.114 133.132  0.00  0.00     0.112 A 
ATOM     41  C           0     130.807 133.599 133.234  0.00  0.00     0.226 A 
ATOM     42  O           0     130.734 134.392 132.319  0.00  0.00    -0.273 OA
ENDBRANCH  35  36
ENDBRANCH  34  35
ENDBRANCH  31  34
ENDBRANCH  29  30
ENDBRANCH  28  29
ENDBRANCH  25  28
ENDBRANCH  23  24
ENDBRANCH  22  23
ENDBRANCH   6  22
BRANCH  18  43
ATOM     43  O           0     137.417 133.486 147.844  0.00  0.00    -0.362 OA
ATOM     44  H           0     138.299 133.566 147.460  0.00  0.00     0.213 HD
ENDBRANCH  18  43
BRANCH  18  45
ATOM     45  O           0     135.974 134.556 146.333  0.00  0.00    -0.362 OA
ATOM     46  H           0     136.723 135.162 146.243  0.00  0.00     0.213 HD
ENDBRANCH  18  45
TORSDOF 11
ENDMDL
MODEL 6
REMARK VINA RESULT:      -8.1      2.419     10.278
REMARK  11 active torsions:
REMARK  status: ('A' for Active; 'I' for Inactive)
REMARK    1  A    between atoms: C_6  and  C_7 
REMARK    2  A    between atoms: C_7  and  O_8 
REMARK    3  A    between atoms: O_8  and  C_9 
REMARK       I    between atoms: C_9  and  N_10 
REMARK    4  A    between atoms: N_10  and  C_11 
REMARK    5  A    between atoms: C_11  and  C_12 
REMARK    6  A    between atoms: C_12  and  N_13 
REMARK       I    between atoms: N_13  and  C_14 
REMARK    7  A    between atoms: C_14  and  C_15 
REMARK    8  A    between atoms: C_15  and  C_16 
REMARK    9  A    between atoms: C_16  and  N_17 
REMARK   10  A    between atoms: C_37  and  O_38 
REMARK   11  A    between atoms: C_37  and  O_39 
ROOT
ATOM      1  N           0     134.960 136.822 143.157  0.00  0.00    -0.235 N 
ATOM      2  H           0     134.172 137.340 142.927  0.00  0.00     0.174 HD
ATOM      3  H           0     135.803 137.271 143.329  0.00  0.00     0.174 HD
ATOM      4  C           0     134.885 135.523 143.238  0.00  0.00     0.672 C 
ATOM      5  N           0     133.705 134.838 143.007  0.00  0.00    -0.218 N 
ATOM      6  C           0     133.788 133.470 142.504  0.00  0.00     0.151 C 
ATOM      7  C           0     134.715 132.598 143.328  0.00  0.00     0.180 C 
ATOM      8  N           0     134.032 132.208 144.580  0.00  0.00    -0.216 N 
ATOM      9  C           0     134.960 132.256 145.592  0.00  0.00     0.670 C 
ATOM     10  N           0     134.827 131.645 146.735  0.00  0.00    -0.235 N 
ATOM     11  H           0     134.033 131.117 146.914  0.00  0.00     0.174 HD
ATOM     12  H           0     135.522 131.721 147.409  0.00  0.00     0.174 HD
ATOM     13  C           0     135.974 133.307 143.805  0.00  0.00     0.217 C 
ATOM     14  N           0     136.043 133.024 145.248  0.00  0.00    -0.191 N 
ATOM     15  N           0     135.970 134.748 143.553  0.00  0.00    -0.183 N 
ATOM     16  C           0     137.381 135.164 143.653  0.00  0.00     0.150 C 
ATOM     17  C           0     138.171 134.004 143.001  0.00  0.00     0.093 C 
ATOM     18  C           0     137.235 132.772 143.105  0.00  0.00     0.209 C 
ATOM     19  H           0     132.846 135.255 143.176  0.00  0.00     0.178 HD
ATOM     20  H           0     133.098 131.964 144.671  0.00  0.00     0.178 HD
ATOM     21  H           0     136.739 133.327 145.853  0.00  0.00     0.180 HD
ENDROOT
BRANCH   6  22
ATOM     22  C           0     134.297 133.504 141.062  0.00  0.00     0.208 C 
BRANCH  22  23
ATOM     23  O           0     133.485 134.421 140.283  0.00  0.00    -0.302 OA
BRANCH  23  24
ATOM     24  C           0     133.771 134.639 138.985  0.00  0.00     0.360 C 
ATOM     25  N           0     132.858 135.219 138.182  0.00  0.00    -0.335 N 
ATOM     26  H           0     131.994 135.480 138.539  0.00  0.00     0.164 HD
ATOM     27  O           0     134.853 134.312 138.539  0.00  0.00    -0.239 OA
BRANCH  25  28
ATOM     28  C           0     133.169 135.456 136.771  0.00  0.00     0.144 C 
BRANCH  28  29
ATOM     29  C           0     131.930 135.171 135.919  0.00  0.00     0.142 C 
BRANCH  29  30
ATOM     30  N           0     131.905 133.752 135.554  0.00  0.00    -0.359 N 
ATOM     31  C           0     130.973 133.295 134.695  0.00  0.00     0.219 C 
ATOM     32  O           0     130.156 134.057 134.223  0.00  0.00    -0.274 OA
ATOM     33  H           0     132.558 133.142 135.931  0.00  0.00     0.162 HD
BRANCH  31  34
ATOM     34  C           0     130.946 131.836 134.319  0.00  0.00     0.123 C 
BRANCH  34  35
ATOM     35  C           0     131.624 131.645 132.960  0.00  0.00     0.144 C 
BRANCH  35  36
ATOM     36  N           0     133.030 131.286 133.161  0.00  0.00    -0.288 N 
ATOM     37  C           0     134.017 132.191 133.143  0.00  0.00     0.226 A 
ATOM     38  C           0     135.336 131.492 133.385  0.00  0.00     0.112 A 
ATOM     39  O           0     133.875 133.382 132.968  0.00  0.00    -0.273 OA
ATOM     40  C           0     134.937 130.010 133.537  0.00  0.00     0.112 A 
ATOM     41  C           0     133.434 130.028 133.371  0.00  0.00     0.226 A 
ATOM     42  O           0     132.709 129.057 133.420  0.00  0.00    -0.273 OA
ENDBRANCH  35  36
ENDBRANCH  34  35
ENDBRANCH  31  34
ENDBRANCH  29  30
ENDBRANCH  28  29
ENDBRANCH  25  28
ENDBRANCH  23  24
ENDBRANCH  22  23
ENDBRANCH   6  22
BRANCH  18  43
ATOM     43  O           0     137.848 131.746 143.888  0.00  0.00    -0.362 OA
ATOM     44  H           0     137.972 132.107 144.775  0.00  0.00     0.213 HD
ENDBRANCH  18  43
BRANCH  18  45
ATOM     45  O           0     136.910 132.281 141.804  0.00  0.00    -0.362 OA
ATOM     46  H           0     137.083 133.001 141.181  0.00  0.00     0.213 HD
ENDBRANCH  18  45
TORSDOF 11
ENDMDL
MODEL 7
REMARK VINA RESULT:      -8.0      3.240     12.088
REMARK  11 active torsions:
REMARK  status: ('A' for Active; 'I' for Inactive)
REMARK    1  A    between atoms: C_6  and  C_7 
REMARK    2  A    between atoms: C_7  and  O_8 
REMARK    3  A    between atoms: O_8  and  C_9 
REMARK       I    between atoms: C_9  and  N_10 
REMARK    4  A    between atoms: N_10  and  C_11 
REMARK    5  A    between atoms: C_11  and  C_12 
REMARK    6  A    between atoms: C_12  and  N_13 
REMARK       I    between atoms: N_13  and  C_14 
REMARK    7  A    between atoms: C_14  and  C_15 
REMARK    8  A    between atoms: C_15  and  C_16 
REMARK    9  A    between atoms: C_16  and  N_17 
REMARK   10  A    between atoms: C_37  and  O_38 
REMARK   11  A    between atoms: C_37  and  O_39 
ROOT
ATOM      1  N           0     134.827 129.691 145.720  0.00  0.00    -0.235 N 
ATOM      2  H           0     134.469 129.209 144.959  0.00  0.00     0.174 HD
ATOM      3  H           0     134.596 129.416 146.621  0.00  0.00     0.174 HD
ATOM      4  C           0     135.624 130.705 145.533  0.00  0.00     0.672 C 
ATOM      5  N           0     135.988 131.132 144.268  0.00  0.00    -0.218 N 
ATOM      6  C           0     136.320 132.542 144.083  0.00  0.00     0.151 C 
ATOM      7  C           0     137.341 133.039 145.088  0.00  0.00     0.180 C 
ATOM      8  N           0     138.684 132.562 144.693  0.00  0.00    -0.216 N 
ATOM      9  C           0     139.350 132.202 145.839  0.00  0.00     0.670 C 
ATOM     10  N           0     140.645 132.085 145.926  0.00  0.00    -0.235 N 
ATOM     11  H           0     141.201 132.254 145.150  0.00  0.00     0.174 HD
ATOM     12  H           0     141.053 131.826 146.768  0.00  0.00     0.174 HD
ATOM     13  C           0     137.155 132.482 146.491  0.00  0.00     0.217 C 
ATOM     14  N           0     138.484 131.983 146.881  0.00  0.00    -0.191 N 
ATOM     15  N           0     136.151 131.421 146.576  0.00  0.00    -0.183 N 
ATOM     16  C           0     135.794 131.336 148.004  0.00  0.00     0.150 C 
ATOM     17  C           0     135.786 132.806 148.486  0.00  0.00     0.093 C 
ATOM     18  C           0     136.691 133.564 147.481  0.00  0.00     0.209 C 
ATOM     19  H           0     136.022 130.511 143.524  0.00  0.00     0.178 HD
ATOM     20  H           0     139.031 132.511 143.789  0.00  0.00     0.178 HD
ATOM     21  H           0     138.710 131.573 147.730  0.00  0.00     0.180 HD
ENDROOT
BRANCH   6  22
ATOM     22  C           0     135.044 133.374 144.227  0.00  0.00     0.208 C 
BRANCH  22  23
ATOM     23  O           0     135.359 134.779 144.040  0.00  0.00    -0.302 OA
BRANCH  23  24
ATOM     24  C           0     134.736 135.486 143.078  0.00  0.00     0.360 C 
ATOM     25  N           0     134.249 134.860 141.990  0.00  0.00    -0.335 N 
ATOM     26  H           0     134.347 133.899 141.898  0.00  0.00     0.164 HD
ATOM     27  O           0     134.613 136.690 143.193  0.00  0.00    -0.239 OA
BRANCH  25  28
ATOM     28  C           0     133.571 135.629 140.944  0.00  0.00     0.144 C 
BRANCH  28  29
ATOM     29  C           0     133.293 134.723 139.742  0.00  0.00     0.142 C 
BRANCH  29  30
ATOM     30  N           0     133.998 135.242 138.566  0.00  0.00    -0.359 N 
ATOM     31  C           0     133.539 134.963 137.330  0.00  0.00     0.219 C 
ATOM     32  O           0     132.544 134.284 137.191  0.00  0.00    -0.274 OA
ATOM     33  H           0     134.793 135.785 138.678  0.00  0.00     0.162 HD
BRANCH  31  34
ATOM     34  C           0     134.263 135.496 136.120  0.00  0.00     0.123 C 
BRANCH  34  35
ATOM     35  C           0     133.322 135.482 134.914  0.00  0.00     0.144 C 
BRANCH  35  36
ATOM     36  N           0     133.985 134.828 133.784  0.00  0.00    -0.288 N 
ATOM     37  C           0     134.585 135.513 132.801  0.00  0.00     0.226 A 
ATOM     38  C           0     135.170 134.539 131.802  0.00  0.00     0.112 A 
ATOM     39  O           0     134.654 136.720 132.729  0.00  0.00    -0.273 OA
ATOM     40  C           0     134.791 133.159 132.378  0.00  0.00     0.112 A 
ATOM     41  C           0     134.038 133.498 133.645  0.00  0.00     0.226 A 
ATOM     42  O           0     133.557 132.692 134.414  0.00  0.00    -0.273 OA
ENDBRANCH  35  36
ENDBRANCH  34  35
ENDBRANCH  31  34
ENDBRANCH  29  30
ENDBRANCH  28  29
ENDBRANCH  25  28
ENDBRANCH  23  24
ENDBRANCH  22  23
ENDBRANCH   6  22
BRANCH  18  43
ATOM     43  O           0     137.810 134.142 148.157  0.00  0.00    -0.362 OA
ATOM     44  H           0     137.830 133.759 149.043  0.00  0.00     0.213 HD
ENDBRANCH  18  43
BRANCH  18  45
ATOM     45  O           0     135.944 134.574 146.800  0.00  0.00    -0.362 OA
ATOM     46  H           0     136.431 134.786 145.992  0.00  0.00     0.213 HD
ENDBRANCH  18  45
TORSDOF 11
ENDMDL
MODEL 8
REMARK VINA RESULT:      -8.0      2.138     10.758
REMARK  11 active torsions:
REMARK  status: ('A' for Active; 'I' for Inactive)
REMARK    1  A    between atoms: C_6  and  C_7 
REMARK    2  A    between atoms: C_7  and  O_8 
REMARK    3  A    between atoms: O_8  and  C_9 
REMARK       I    between atoms: C_9  and  N_10 
REMARK    4  A    between atoms: N_10  and  C_11 
REMARK    5  A    between atoms: C_11  and  C_12 
REMARK    6  A    between atoms: C_12  and  N_13 
REMARK       I    between atoms: N_13  and  C_14 
REMARK    7  A    between atoms: C_14  and  C_15 
REMARK    8  A    between atoms: C_15  and  C_16 
REMARK    9  A    between atoms: C_16  and  N_17 
REMARK   10  A    between atoms: C_37  and  O_38 
REMARK   11  A    between atoms: C_37  and  O_39 
ROOT
ATOM      1  N           0     134.979 136.830 143.186  0.00  0.00    -0.235 N 
ATOM      2  H           0     134.198 137.357 142.957  0.00  0.00     0.174 HD
ATOM      3  H           0     135.823 137.269 143.376  0.00  0.00     0.174 HD
ATOM      4  C           0     134.894 135.530 143.244  0.00  0.00     0.672 C 
ATOM      5  N           0     133.713 134.858 142.988  0.00  0.00    -0.218 N 
ATOM      6  C           0     133.792 133.498 142.462  0.00  0.00     0.151 C 
ATOM      7  C           0     134.703 132.605 143.282  0.00  0.00     0.180 C 
ATOM      8  N           0     134.002 132.199 144.519  0.00  0.00    -0.216 N 
ATOM      9  C           0     134.919 132.223 145.542  0.00  0.00     0.670 C 
ATOM     10  N           0     134.768 131.594 146.674  0.00  0.00    -0.235 N 
ATOM     11  H           0     133.969 131.068 146.834  0.00  0.00     0.174 HD
ATOM     12  H           0     135.456 131.653 147.356  0.00  0.00     0.174 HD
ATOM     13  C           0     135.961 133.297 143.786  0.00  0.00     0.217 C 
ATOM     14  N           0     136.012 132.989 145.225  0.00  0.00    -0.191 N 
ATOM     15  N           0     135.970 134.742 143.558  0.00  0.00    -0.183 N 
ATOM     16  C           0     137.383 135.147 143.682  0.00  0.00     0.150 C 
ATOM     17  C           0     138.172 133.992 143.020  0.00  0.00     0.093 C 
ATOM     18  C           0     137.226 132.765 143.092  0.00  0.00     0.209 C 
ATOM     19  H           0     132.855 135.278 143.154  0.00  0.00     0.178 HD
ATOM     20  H           0     133.066 131.960 144.595  0.00  0.00     0.178 HD
ATOM     21  H           0     136.702 133.276 145.843  0.00  0.00     0.180 HD
ENDROOT
BRANCH   6  22
ATOM     22  C           0     134.318 133.552 141.027  0.00  0.00     0.208 C 
BRANCH  22  23
ATOM     23  O           0     133.516 134.482 140.253  0.00  0.00    -0.302 OA
BRANCH  23  24
ATOM     24  C           0     133.725 134.611 138.928  0.00  0.00     0.360 C 
ATOM     25  N           0     132.688 134.856 138.104  0.00  0.00    -0.335 N 
ATOM     26  H           0     131.791 134.940 138.464  0.00  0.00     0.164 HD
ATOM     27  O           0     134.848 134.506 138.477  0.00  0.00    -0.239 OA
BRANCH  25  28
ATOM     28  C           0     132.915 134.997 136.663  0.00  0.00     0.144 C 
BRANCH  28  29
ATOM     29  C           0     131.905 135.989 136.082  0.00  0.00     0.142 C 
BRANCH  29  30
ATOM     30  N           0     130.904 135.263 135.297  0.00  0.00    -0.359 N 
ATOM     31  C           0     130.681 135.602 134.012  0.00  0.00     0.219 C 
ATOM     32  O           0     131.309 136.508 133.505  0.00  0.00    -0.274 OA
ATOM     33  H           0     130.401 134.539 135.702  0.00  0.00     0.162 HD
BRANCH  31  34
ATOM     34  C           0     129.651 134.856 133.203  0.00  0.00     0.123 C 
BRANCH  34  35
ATOM     35  C           0     130.354 133.925 132.213  0.00  0.00     0.144 C 
BRANCH  35  36
ATOM     36  N           0     130.116 132.532 132.598  0.00  0.00    -0.288 N 
ATOM     37  C           0     130.857 131.898 133.516  0.00  0.00     0.226 A 
ATOM     38  C           0     130.344 130.483 133.677  0.00  0.00     0.112 A 
ATOM     39  O           0     131.784 132.382 134.127  0.00  0.00    -0.273 OA
ATOM     40  C           0     129.175 130.406 132.675  0.00  0.00     0.112 A 
ATOM     41  C           0     129.145 131.786 132.057  0.00  0.00     0.226 A 
ATOM     42  O           0     128.365 132.159 131.207  0.00  0.00    -0.273 OA
ENDBRANCH  35  36
ENDBRANCH  34  35
ENDBRANCH  31  34
ENDBRANCH  29  30
ENDBRANCH  28  29
ENDBRANCH  25  28
ENDBRANCH  23  24
ENDBRANCH  22  23
ENDBRANCH   6  22
BRANCH  18  43
ATOM     43  O           0     137.823 131.721 143.864  0.00  0.00    -0.362 OA
ATOM     44  H           0     138.747 131.968 144.001  0.00  0.00     0.213 HD
ENDBRANCH  18  43
BRANCH  18  45
ATOM     45  O           0     136.914 132.299 141.778  0.00  0.00    -0.362 OA
ATOM     46  H           0     136.298 131.560 141.883  0.00  0.00     0.213 HD
ENDBRANCH  18  45
TORSDOF 11
ENDMDL
MODEL 9
REMARK VINA RESULT:      -8.0      2.577      4.071
REMARK  11 active torsions:
REMARK  status: ('A' for Active; 'I' for Inactive)
REMARK    1  A    between atoms: C_6  and  C_7 
REMARK    2  A    between atoms: C_7  and  O_8 
REMARK    3  A    between atoms: O_8  and  C_9 
REMARK       I    between atoms: C_9  and  N_10 
REMARK    4  A    between atoms: N_10  and  C_11 
REMARK    5  A    between atoms: C_11  and  C_12 
REMARK    6  A    between atoms: C_12  and  N_13 
REMARK       I    between atoms: N_13  and  C_14 
REMARK    7  A    between atoms: C_14  and  C_15 
REMARK    8  A    between atoms: C_15  and  C_16 
REMARK    9  A    between atoms: C_16  and  N_17 
REMARK   10  A    between atoms: C_37  and  O_38 
REMARK   11  A    between atoms: C_37  and  O_39 
ROOT
ATOM      1  N           0     131.349 132.136 135.073  0.00  0.00    -0.235 N 
ATOM      2  H           0     130.715 131.803 135.727  0.00  0.00     0.174 HD
ATOM      3  H           0     131.756 131.527 134.437  0.00  0.00     0.174 HD
ATOM      4  C           0     131.649 133.404 135.043  0.00  0.00     0.672 C 
ATOM      5  N           0     131.091 134.313 135.924  0.00  0.00    -0.218 N 
ATOM      6  C           0     131.864 135.502 136.273  0.00  0.00     0.151 C 
ATOM      7  C           0     132.378 136.244 135.054  0.00  0.00     0.180 C 
ATOM      8  N           0     131.270 137.012 134.448  0.00  0.00    -0.216 N 
ATOM      9  C           0     131.393 136.913 133.084  0.00  0.00     0.670 C 
ATOM     10  N           0     130.835 137.733 132.237  0.00  0.00    -0.235 N 
ATOM     11  H           0     130.292 138.468 132.560  0.00  0.00     0.174 HD
ATOM     12  H           0     130.963 137.606 131.284  0.00  0.00     0.174 HD
ATOM     13  C           0     132.850 135.336 133.928  0.00  0.00     0.217 C 
ATOM     14  N           0     132.176 135.846 132.723  0.00  0.00    -0.191 N 
ATOM     15  N           0     132.542 133.922 134.142  0.00  0.00    -0.183 N 
ATOM     16  C           0     133.435 133.186 133.228  0.00  0.00     0.150 C 
ATOM     17  C           0     134.767 133.971 133.278  0.00  0.00     0.093 C 
ATOM     18  C           0     134.376 135.398 133.741  0.00  0.00     0.209 C 
ATOM     19  H           0     130.209 134.165 136.300  0.00  0.00     0.178 HD
ATOM     20  H           0     130.580 137.498 134.927  0.00  0.00     0.178 HD
ATOM     21  H           0     132.273 135.491 131.825  0.00  0.00     0.180 HD
ENDROOT
BRANCH   6  22
ATOM     22  C           0     133.057 135.082 137.133  0.00  0.00     0.208 C 
BRANCH  22  23
ATOM     23  O           0     132.581 134.372 138.306  0.00  0.00    -0.302 OA
BRANCH  23  24
ATOM     24  C           0     133.099 134.652 139.518  0.00  0.00     0.360 C 
ATOM     25  N           0     133.474 133.651 140.338  0.00  0.00    -0.335 N 
ATOM     26  H           0     133.371 132.729 140.056  0.00  0.00     0.164 HD
ATOM     27  O           0     133.228 135.808 139.871  0.00  0.00    -0.239 OA
BRANCH  25  28
ATOM     28  C           0     134.038 133.955 141.655  0.00  0.00     0.144 C 
BRANCH  28  29
ATOM     29  C           0     135.301 133.120 141.876  0.00  0.00     0.142 C 
BRANCH  29  30
ATOM     30  N           0     135.372 132.703 143.279  0.00  0.00    -0.359 N 
ATOM     31  C           0     134.868 131.511 143.653  0.00  0.00     0.219 C 
ATOM     32  O           0     134.356 130.783 142.829  0.00  0.00    -0.274 OA
ATOM     33  H           0     135.781 133.285 143.937  0.00  0.00     0.162 HD
BRANCH  31  34
ATOM     34  C           0     134.941 131.081 145.096  0.00  0.00     0.123 C 
BRANCH  34  35
ATOM     35  C           0     135.748 132.107 145.894  0.00  0.00     0.144 C 
BRANCH  35  36
ATOM     36  N           0     137.010 131.504 146.329  0.00  0.00    -0.288 N 
ATOM     37  C           0     138.120 131.528 145.579  0.00  0.00     0.226 A 
ATOM     38  C           0     139.236 130.826 146.321  0.00  0.00     0.112 A 
ATOM     39  O           0     138.216 132.038 144.485  0.00  0.00    -0.273 OA
ATOM     40  C           0     138.569 130.378 147.638  0.00  0.00     0.112 A 
ATOM     41  C           0     137.148 130.879 147.505  0.00  0.00     0.226 A 
ATOM     42  O           0     136.273 130.738 148.332  0.00  0.00    -0.273 OA
ENDBRANCH  35  36
ENDBRANCH  34  35
ENDBRANCH  31  34
ENDBRANCH  29  30
ENDBRANCH  28  29
ENDBRANCH  25  28
ENDBRANCH  23  24
ENDBRANCH  22  23
ENDBRANCH   6  22
BRANCH  18  43
ATOM     43  O           0     134.722 136.359 132.741  0.00  0.00    -0.362 OA
ATOM     44  H           0     134.590 135.931 131.885  0.00  0.00     0.213 HD
ENDBRANCH  18  43
BRANCH  18  45
ATOM     45  O           0     135.016 135.714 134.979  0.00  0.00    -0.362 OA
ATOM     46  H           0     135.031 134.900 135.501  0.00  0.00     0.213 HD
ENDBRANCH  18  45
TORSDOF 11
ENDMDL
