MODEL 1
REMARK VINA RESULT:      -7.8      0.000      0.000
REMARK  7 active torsions:
REMARK  status: ('A' for Active; 'I' for Inactive)
REMARK    1  A    between atoms: C_6  and  O_7 
REMARK    2  A    between atoms: C_10  and  O_11 
REMARK    3  A    between atoms: C_15  and  O_16 
REMARK    4  A    between atoms: C_18  and  O_19 
REMARK    5  A    between atoms: C_18  and  C_20 
REMARK    6  A    between atoms: C_20  and  O_21 
REMARK    7  A    between atoms: C_23  and  O_24 
ROOT
ATOM      1  N           0     134.400 136.184 142.200  0.00  0.00    -0.235 N 
ATOM      2  H           0     133.678 135.939 141.600  0.00  0.00     0.174 HD
ATOM      3  H           0     134.823 137.053 142.119  0.00  0.00     0.174 HD
ATOM      4  C           0     134.798 135.348 143.117  0.00  0.00     0.670 C 
ATOM      5  N           0     134.214 134.100 143.266  0.00  0.00    -0.200 N 
ATOM      6  C           0     135.101 132.951 143.519  0.00  0.00     0.244 C 
ATOM      7  C           0     136.054 133.320 144.659  0.00  0.00     0.101 C 
ATOM      8  C           0     136.798 134.608 144.285  0.00  0.00     0.119 C 
ATOM      9  C           0     137.650 134.316 143.042  0.00  0.00     0.243 C 
ATOM     10  N           0     135.832 135.661 143.991  0.00  0.00    -0.211 N 
ATOM     11  C           0     137.071 132.203 144.886  0.00  0.00     0.177 C 
ATOM     12  O           0     137.879 132.003 143.732  0.00  0.00    -0.322 OA
ATOM     13  C           0     138.607 133.182 143.425  0.00  0.00     0.311 C 
ATOM     14  O           0     139.474 133.604 144.462  0.00  0.00    -0.319 OA
ATOM     15  C           0     137.978 132.597 146.061  0.00  0.00     0.134 C 
ATOM     16  C           0     138.736 133.874 145.649  0.00  0.00     0.198 C 
ATOM     17  C           0     137.737 135.002 145.424  0.00  0.00     0.182 C 
ATOM     18  H           0     133.253 133.986 143.207  0.00  0.00     0.180 HD
ATOM     19  H           0     135.904 136.541 144.391  0.00  0.00     0.178 HD
ENDROOT
BRANCH  15  20
ATOM     20  O           0     137.184 132.862 147.219  0.00  0.00    -0.382 OA
ATOM     21  H           0     137.595 133.609 147.675  0.00  0.00     0.210 HD
ENDBRANCH  15  20
BRANCH  15  22
ATOM     22  C           0     138.966 131.467 146.356  0.00  0.00     0.207 C 
BRANCH  22  23
ATOM     23  O           0     138.328 130.208 146.134  0.00  0.00    -0.398 OA
ATOM     24  H           0     137.414 130.302 146.434  0.00  0.00     0.209 HD
ENDBRANCH  22  23
ENDBRANCH  15  22
BRANCH  17  25
ATOM     25  O           0     138.435 136.199 145.077  0.00  0.00    -0.390 OA
ATOM     26  H           0     138.601 136.159 144.125  0.00  0.00     0.210 HD
ENDBRANCH  17  25
BRANCH   6  27
ATOM     27  O           0     134.320 131.813 143.893  0.00  0.00    -0.376 OA
ATOM     28  H           0     134.494 131.126 143.234  0.00  0.00     0.212 HD
ENDBRANCH   6  27
BRANCH  13  29
ATOM     29  O           0     139.426 132.902 142.288  0.00  0.00    -0.341 OA
ATOM     30  H           0     139.354 131.953 142.119  0.00  0.00     0.215 HD
ENDBRANCH  13  29
BRANCH   9  31
ATOM     31  O           0     136.812 133.907 141.958  0.00  0.00    -0.385 OA
ATOM     32  H           0     137.307 134.070 141.144  0.00  0.00     0.210 HD
ENDBRANCH   9  31
TORSDOF 7
ENDMDL
MODEL 2
REMARK VINA RESULT:      -7.5      1.631      3.038
REMARK  7 active torsions:
REMARK  status: ('A' for Active; 'I' for Inactive)
REMARK    1  A    between atoms: C_6  and  O_7 
REMARK    2  A    between atoms: C_10  and  O_11 
REMARK    3  A    between atoms: C_15  and  O_16 
REMARK    4  A    between atoms: C_18  and  O_19 
REMARK    5  A    between atoms: C_18  and  C_20 
REMARK    6  A    between atoms: C_20  and  O_21 
REMARK    7  A    between atoms: C_23  and  O_24 
ROOT
ATOM      1  N           0     135.503 136.132 143.341  0.00  0.00    -0.235 N 
ATOM      2  H           0     135.674 136.576 142.495  0.00  0.00     0.174 HD
ATOM      3  H           0     134.874 136.515 143.971  0.00  0.00     0.174 HD
ATOM      4  C           0     136.118 135.019 143.628  0.00  0.00     0.670 C 
ATOM      5  N           0     137.021 134.439 142.750  0.00  0.00    -0.200 N 
ATOM      6  C           0     138.263 133.880 143.310  0.00  0.00     0.244 C 
ATOM      7  C           0     137.896 132.980 144.494  0.00  0.00     0.101 C 
ATOM      8  C           0     137.073 133.796 145.499  0.00  0.00     0.119 C 
ATOM      9  C           0     137.965 134.926 146.032  0.00  0.00     0.243 C 
ATOM     10  N           0     135.905 134.357 144.831  0.00  0.00    -0.211 N 
ATOM     11  C           0     139.159 132.464 145.183  0.00  0.00     0.177 C 
ATOM     12  O           0     139.928 133.538 145.714  0.00  0.00    -0.322 OA
ATOM     13  C           0     139.179 134.253 146.683  0.00  0.00     0.311 C 
ATOM     14  O           0     138.767 133.463 147.784  0.00  0.00    -0.319 OA
ATOM     15  C           0     138.744 131.537 146.334  0.00  0.00     0.134 C 
ATOM     16  C           0     137.947 132.385 147.344  0.00  0.00     0.198 C 
ATOM     17  C           0     136.679 132.904 146.675  0.00  0.00     0.182 C 
ATOM     18  H           0     136.839 134.401 141.799  0.00  0.00     0.180 HD
ATOM     19  H           0     135.015 134.268 145.206  0.00  0.00     0.178 HD
ENDROOT
BRANCH  15  20
ATOM     20  O           0     137.920 130.483 145.835  0.00  0.00    -0.382 OA
ATOM     21  H           0     137.994 129.749 146.461  0.00  0.00     0.210 HD
ENDBRANCH  15  20
BRANCH  15  22
ATOM     22  C           0     139.990 130.951 147.002  0.00  0.00     0.207 C 
BRANCH  22  23
ATOM     23  O           0     141.125 131.161 146.160  0.00  0.00    -0.398 OA
ATOM     24  H           0     140.830 131.721 145.428  0.00  0.00     0.209 HD
ENDBRANCH  22  23
ENDBRANCH  15  22
BRANCH  17  25
ATOM     25  O           0     135.917 133.661 147.617  0.00  0.00    -0.390 OA
ATOM     26  H           0     136.210 134.580 147.538  0.00  0.00     0.210 HD
ENDBRANCH  17  25
BRANCH   6  27
ATOM     27  O           0     138.939 133.112 142.312  0.00  0.00    -0.376 OA
ATOM     28  H           0     139.672 133.656 141.990  0.00  0.00     0.212 HD
ENDBRANCH   6  27
BRANCH  13  29
ATOM     29  O           0     140.019 135.284 147.206  0.00  0.00    -0.341 OA
ATOM     30  H           0     140.430 134.931 148.005  0.00  0.00     0.215 HD
ENDBRANCH  13  29
BRANCH   9  31
ATOM     31  O           0     138.387 135.766 144.956  0.00  0.00    -0.385 OA
ATOM     32  H           0     138.888 136.494 145.349  0.00  0.00     0.210 HD
ENDBRANCH   9  31
TORSDOF 7
ENDMDL
MODEL 3
REMARK VINA RESULT:      -7.3      1.924      3.816
REMARK  7 active torsions:
REMARK  status: ('A' for Active; 'I' for Inactive)
REMARK    1  A    between atoms: C_6  and  O_7 
REMARK    2  A    between atoms: C_10  and  O_11 
REMARK    3  A    between atoms: C_15  and  O_16 
REMARK    4  A    between atoms: C_18  and  O_19 
REMARK    5  A    between atoms: C_18  and  C_20 
REMARK    6  A    between atoms: C_20  and  O_21 
REMARK    7  A    between atoms: C_23  and  O_24 
ROOT
ATOM      1  N           0     135.052 132.380 141.881  0.00  0.00    -0.235 N 
ATOM      2  H           0     134.701 133.006 141.228  0.00  0.00     0.174 HD
ATOM      3  H           0     134.563 131.568 142.085  0.00  0.00     0.174 HD
ATOM      4  C           0     136.181 132.630 142.482  0.00  0.00     0.670 C 
ATOM      5  N           0     136.910 133.778 142.214  0.00  0.00    -0.200 N 
ATOM      6  C           0     137.516 134.490 143.352  0.00  0.00     0.244 C 
ATOM      7  C           0     138.273 133.472 144.210  0.00  0.00     0.101 C 
ATOM      8  C           0     137.305 132.355 144.621  0.00  0.00     0.119 C 
ATOM      9  C           0     136.209 132.979 145.496  0.00  0.00     0.243 C 
ATOM     10  N           0     136.712 131.761 143.428  0.00  0.00    -0.211 N 
ATOM     11  C           0     138.826 134.142 145.467  0.00  0.00     0.177 C 
ATOM     12  O           0     137.776 134.654 146.279  0.00  0.00    -0.322 OA
ATOM     13  C           0     136.918 133.607 146.701  0.00  0.00     0.311 C 
ATOM     14  O           0     137.568 132.606 147.462  0.00  0.00    -0.319 OA
ATOM     15  C           0     139.608 133.096 146.275  0.00  0.00     0.134 C 
ATOM     16  C           0     138.610 132.002 146.702  0.00  0.00     0.198 C 
ATOM     17  C           0     138.051 131.319 145.459  0.00  0.00     0.182 C 
ATOM     18  H           0     137.019 134.100 141.306  0.00  0.00     0.180 HD
ATOM     19  H           0     136.693 130.801 143.296  0.00  0.00     0.178 HD
ENDROOT
BRANCH  15  20
ATOM     20  O           0     140.632 132.521 145.462  0.00  0.00    -0.382 OA
ATOM     21  H           0     140.332 132.586 144.545  0.00  0.00     0.210 HD
ENDBRANCH  15  20
BRANCH  15  22
ATOM     22  C           0     140.232 133.753 147.508  0.00  0.00     0.207 C 
BRANCH  22  23
ATOM     23  O           0     140.257 135.170 147.330  0.00  0.00    -0.398 OA
ATOM     24  H           0     139.547 135.533 147.877  0.00  0.00     0.209 HD
ENDBRANCH  22  23
ENDBRANCH  15  22
BRANCH  17  25
ATOM     25  O           0     137.152 130.279 145.848  0.00  0.00    -0.390 OA
ATOM     26  H           0     136.391 130.709 146.262  0.00  0.00     0.210 HD
ENDBRANCH  17  25
BRANCH   6  27
ATOM     27  O           0     138.425 135.483 142.870  0.00  0.00    -0.376 OA
ATOM     28  H           0     138.730 135.981 143.642  0.00  0.00     0.212 HD
ENDBRANCH   6  27
BRANCH  13  29
ATOM     29  O           0     135.915 134.181 147.543  0.00  0.00    -0.341 OA
ATOM     30  H           0     135.162 134.392 146.976  0.00  0.00     0.215 HD
ENDBRANCH  13  29
BRANCH   9  31
ATOM     31  O           0     135.506 133.983 144.760  0.00  0.00    -0.385 OA
ATOM     32  H           0     135.031 133.529 144.051  0.00  0.00     0.210 HD
ENDBRANCH   9  31
TORSDOF 7
ENDMDL
MODEL 4
REMARK VINA RESULT:      -7.3      1.640      2.409
REMARK  7 active torsions:
REMARK  status: ('A' for Active; 'I' for Inactive)
REMARK    1  A    between atoms: C_6  and  O_7 
REMARK    2  A    between atoms: C_10  and  O_11 
REMARK    3  A    between atoms: C_15  and  O_16 
REMARK    4  A    between atoms: C_18  and  O_19 
REMARK    5  A    between atoms: C_18  and  C_20 
REMARK    6  A    between atoms: C_20  and  O_21 
REMARK    7  A    between atoms: C_23  and  O_24 
ROOT
ATOM      1  N           0     133.326 131.946 141.944  0.00  0.00    -0.235 N 
ATOM      2  H           0     133.013 131.047 141.757  0.00  0.00     0.174 HD
ATOM      3  H           0     133.123 132.668 141.328  0.00  0.00     0.174 HD
ATOM      4  C           0     134.016 132.186 143.023  0.00  0.00     0.670 C 
ATOM      5  N           0     134.321 131.182 143.929  0.00  0.00    -0.200 N 
ATOM      6  C           0     135.680 131.159 144.499  0.00  0.00     0.244 C 
ATOM      7  C           0     136.013 132.564 145.008  0.00  0.00     0.101 C 
ATOM      8  C           0     135.839 133.562 143.856  0.00  0.00     0.119 C 
ATOM      9  C           0     136.861 133.207 142.767  0.00  0.00     0.243 C 
ATOM     10  N           0     134.486 133.459 143.323  0.00  0.00    -0.211 N 
ATOM     11  C           0     137.456 132.622 145.507  0.00  0.00     0.177 C 
ATOM     12  O           0     138.373 132.346 144.455  0.00  0.00    -0.322 OA
ATOM     13  C           0     138.245 133.306 143.419  0.00  0.00     0.311 C 
ATOM     14  O           0     138.494 134.635 143.838  0.00  0.00    -0.319 OA
ATOM     15  C           0     137.732 134.034 146.044  0.00  0.00     0.134 C 
ATOM     16  C           0     137.582 135.013 144.864  0.00  0.00     0.198 C 
ATOM     17  C           0     136.145 134.973 144.356  0.00  0.00     0.182 C 
ATOM     18  H           0     133.662 130.517 144.181  0.00  0.00     0.180 HD
ATOM     19  H           0     133.933 134.244 143.186  0.00  0.00     0.178 HD
ENDROOT
BRANCH  15  20
ATOM     20  O           0     136.784 134.360 147.062  0.00  0.00    -0.382 OA
ATOM     21  H           0     136.436 135.237 146.851  0.00  0.00     0.210 HD
ENDBRANCH  15  20
BRANCH  15  22
ATOM     22  C           0     139.151 134.105 146.613  0.00  0.00     0.207 C 
BRANCH  22  23
ATOM     23  O           0     139.708 135.392 146.341  0.00  0.00    -0.398 OA
ATOM     24  H           0     139.969 135.768 147.192  0.00  0.00     0.209 HD
ENDBRANCH  22  23
ENDBRANCH  15  22
BRANCH  17  25
ATOM     25  O           0     135.989 135.905 143.285  0.00  0.00    -0.390 OA
ATOM     26  H           0     135.227 135.610 142.767  0.00  0.00     0.210 HD
ENDBRANCH  17  25
BRANCH   6  27
ATOM     27  O           0     135.732 130.229 145.583  0.00  0.00    -0.376 OA
ATOM     28  H           0     136.507 130.462 146.114  0.00  0.00     0.212 HD
ENDBRANCH   6  27
BRANCH  13  29
ATOM     29  O           0     139.218 132.997 142.419  0.00  0.00    -0.341 OA
ATOM     30  H           0     138.979 132.135 142.053  0.00  0.00     0.215 HD
ENDBRANCH  13  29
BRANCH   9  31
ATOM     31  O           0     136.632 131.877 142.295  0.00  0.00    -0.385 OA
ATOM     32  H           0     137.485 131.537 141.994  0.00  0.00     0.210 HD
ENDBRANCH   9  31
TORSDOF 7
ENDMDL
MODEL 5
REMARK VINA RESULT:      -7.2      2.132      3.992
REMARK  7 active torsions:
REMARK  status: ('A' for Active; 'I' for Inactive)
REMARK    1  A    between atoms: C_6  and  O_7 
REMARK    2  A    between atoms: C_10  and  O_11 
REMARK    3  A    between atoms: C_15  and  O_16 
REMARK    4  A    between atoms: C_18  and  O_19 
REMARK    5  A    between atoms: C_18  and  C_20 
REMARK    6  A    between atoms: C_20  and  O_21 
REMARK    7  A    between atoms: C_23  and  O_24 
ROOT
ATOM      1  N           0     139.779 136.212 146.280  0.00  0.00    -0.235 N 
ATOM      2  H           0     140.519 136.603 145.789  0.00  0.00     0.174 HD
ATOM      3  H           0     139.760 136.260 147.248  0.00  0.00     0.174 HD
ATOM      4  C           0     138.809 135.625 145.637  0.00  0.00     0.670 C 
ATOM      5  N           0     138.799 135.540 144.254  0.00  0.00    -0.200 N 
ATOM      6  C           0     138.379 134.265 143.645  0.00  0.00     0.244 C 
ATOM      7  C           0     137.062 133.832 144.294  0.00  0.00     0.101 C 
ATOM      8  C           0     137.259 133.760 145.814  0.00  0.00     0.119 C 
ATOM      9  C           0     138.301 132.670 146.103  0.00  0.00     0.243 C 
ATOM     10  N           0     137.735 135.047 146.305  0.00  0.00    -0.211 N 
ATOM     11  C           0     136.640 132.457 143.779  0.00  0.00     0.177 C 
ATOM     12  O           0     137.604 131.466 144.118  0.00  0.00    -0.322 OA
ATOM     13  C           0     137.739 131.366 145.526  0.00  0.00     0.311 C 
ATOM     14  O           0     136.540 131.013 146.192  0.00  0.00    -0.319 OA
ATOM     15  C           0     135.299 132.081 144.424  0.00  0.00     0.134 C 
ATOM     16  C           0     135.529 131.985 145.944  0.00  0.00     0.198 C 
ATOM     17  C           0     135.945 133.351 146.478  0.00  0.00     0.182 C 
ATOM     18  H           0     139.058 136.295 143.704  0.00  0.00     0.180 HD
ATOM     19  H           0     137.319 135.487 147.063  0.00  0.00     0.178 HD
ENDROOT
BRANCH  15  20
ATOM     20  O           0     134.328 133.093 144.148  0.00  0.00    -0.382 OA
ATOM     21  H           0     134.593 133.517 143.321  0.00  0.00     0.210 HD
ENDBRANCH  15  20
BRANCH  15  22
ATOM     22  C           0     134.817 130.737 143.875  0.00  0.00     0.207 C 
BRANCH  22  23
ATOM     23  O           0     133.849 130.961 142.849  0.00  0.00    -0.398 OA
ATOM     24  H           0     133.539 130.091 142.562  0.00  0.00     0.209 HD
ENDBRANCH  22  23
ENDBRANCH  15  22
BRANCH  17  25
ATOM     25  O           0     136.126 133.277 147.893  0.00  0.00    -0.390 OA
ATOM     26  H           0     135.374 132.781 148.245  0.00  0.00     0.210 HD
ENDBRANCH  17  25
BRANCH   6  27
ATOM     27  O           0     138.188 134.443 142.240  0.00  0.00    -0.376 OA
ATOM     28  H           0     138.092 133.558 141.858  0.00  0.00     0.212 HD
ENDBRANCH   6  27
BRANCH  13  29
ATOM     29  O           0     138.684 130.329 145.798  0.00  0.00    -0.341 OA
ATOM     30  H           0     138.641 129.710 145.057  0.00  0.00     0.215 HD
ENDBRANCH  13  29
BRANCH   9  31
ATOM     31  O           0     139.539 132.996 145.468  0.00  0.00    -0.385 OA
ATOM     32  H           0     139.411 133.844 145.022  0.00  0.00     0.210 HD
ENDBRANCH   9  31
TORSDOF 7
ENDMDL
MODEL 6
REMARK VINA RESULT:      -7.1      2.615      4.881
REMARK  7 active torsions:
REMARK  status: ('A' for Active; 'I' for Inactive)
REMARK    1  A    between atoms: C_6  and  O_7 
REMARK    2  A    between atoms: C_10  and  O_11 
REMARK    3  A    between atoms: C_15  and  O_16 
REMARK    4  A    between atoms: C_18  and  O_19 
REMARK    5  A    between atoms: C_18  and  C_20 
REMARK    6  A    between atoms: C_20  and  O_21 
REMARK    7  A    between atoms: C_23  and  O_24 
ROOT
ATOM      1  N           0     140.414 132.336 148.498  0.00  0.00    -0.235 N 
ATOM      2  H           0     141.285 131.912 148.447  0.00  0.00     0.174 HD
ATOM      3  H           0     139.929 132.350 149.338  0.00  0.00     0.174 HD
ATOM      4  C           0     139.897 132.891 147.438  0.00  0.00     0.670 C 
ATOM      5  N           0     140.562 132.896 146.222  0.00  0.00    -0.200 N 
ATOM      6  C           0     139.774 132.627 145.006  0.00  0.00     0.244 C 
ATOM      7  C           0     138.533 133.524 145.028  0.00  0.00     0.101 C 
ATOM      8  C           0     137.766 133.274 146.333  0.00  0.00     0.119 C 
ATOM      9  C           0     137.287 131.816 146.327  0.00  0.00     0.243 C 
ATOM     10  N           0     138.650 133.504 147.469  0.00  0.00    -0.211 N 
ATOM     11  C           0     137.623 133.203 143.843  0.00  0.00     0.177 C 
ATOM     12  O           0     137.154 131.861 143.907  0.00  0.00    -0.322 OA
ATOM     13  C           0     136.398 131.654 145.089  0.00  0.00     0.311 C 
ATOM     14  O           0     135.259 132.488 145.192  0.00  0.00    -0.319 OA
ATOM     15  C           0     136.414 134.149 143.883  0.00  0.00     0.134 C 
ATOM     16  C           0     135.644 133.859 145.185  0.00  0.00     0.198 C 
ATOM     17  C           0     136.535 134.180 146.380  0.00  0.00     0.182 C 
ATOM     18  H           0     141.514 133.072 146.172  0.00  0.00     0.180 HD
ATOM     19  H           0     138.383 134.065 148.214  0.00  0.00     0.178 HD
ENDROOT
BRANCH  15  20
ATOM     20  O           0     136.861 135.506 143.881  0.00  0.00    -0.382 OA
ATOM     21  H           0     136.866 135.798 142.960  0.00  0.00     0.210 HD
ENDBRANCH  15  20
BRANCH  15  22
ATOM     22  C           0     135.517 133.897 142.670  0.00  0.00     0.207 C 
BRANCH  22  23
ATOM     23  O           0     136.272 133.244 141.648  0.00  0.00    -0.398 OA
ATOM     24  H           0     136.574 132.403 142.017  0.00  0.00     0.209 HD
ENDBRANCH  22  23
ENDBRANCH  15  22
BRANCH  17  25
ATOM     25  O           0     135.815 133.947 147.591  0.00  0.00    -0.390 OA
ATOM     26  H           0     134.895 133.784 147.342  0.00  0.00     0.210 HD
ENDBRANCH  17  25
BRANCH   6  27
ATOM     27  O           0     140.560 132.921 143.849  0.00  0.00    -0.376 OA
ATOM     28  H           0     140.350 133.831 143.592  0.00  0.00     0.212 HD
ENDBRANCH   6  27
BRANCH  13  29
ATOM     29  O           0     135.923 130.306 145.069  0.00  0.00    -0.341 OA
ATOM     30  H           0     135.268 130.251 144.361  0.00  0.00     0.215 HD
ENDBRANCH  13  29
BRANCH   9  31
ATOM     31  O           0     138.408 130.933 146.247  0.00  0.00    -0.385 OA
ATOM     32  H           0     138.489 130.505 147.110  0.00  0.00     0.210 HD
ENDBRANCH   9  31
TORSDOF 7
ENDMDL
MODEL 7
REMARK VINA RESULT:      -7.1      2.765      4.796
REMARK  7 active torsions:
REMARK  status: ('A' for Active; 'I' for Inactive)
REMARK    1  A    between atoms: C_6  and  O_7 
REMARK    2  A    between atoms: C_10  and  O_11 
REMARK    3  A    between atoms: C_15  and  O_16 
REMARK    4  A    between atoms: C_18  and  O_19 
REMARK    5  A    between atoms: C_18  and  C_20 
REMARK    6  A    between atoms: C_20  and  O_21 
REMARK    7  A    between atoms: C_23  and  O_24 
ROOT
ATOM      1  N           0     134.371 130.661 149.267  0.00  0.00    -0.235 N 
ATOM      2  H           0     134.604 130.696 150.208  0.00  0.00     0.174 HD
ATOM      3  H           0     133.885 129.899 148.915  0.00  0.00     0.174 HD
ATOM      4  C           0     134.709 131.640 148.476  0.00  0.00     0.670 C 
ATOM      5  N           0     135.399 132.748 148.942  0.00  0.00    -0.200 N 
ATOM      6  C           0     136.493 133.278 148.110  0.00  0.00     0.244 C 
ATOM      7  C           0     135.975 133.439 146.678  0.00  0.00     0.101 C 
ATOM      8  C           0     135.426 132.090 146.196  0.00  0.00     0.119 C 
ATOM      9  C           0     136.591 131.091 146.161  0.00  0.00     0.243 C 
ATOM     10  N           0     134.399 131.624 147.121  0.00  0.00    -0.211 N 
ATOM     11  C           0     137.106 133.879 145.749  0.00  0.00     0.177 C 
ATOM     12  O           0     138.138 132.900 145.698  0.00  0.00    -0.322 OA
ATOM     13  C           0     137.634 131.672 145.199  0.00  0.00     0.311 C 
ATOM     14  O           0     137.095 131.764 143.892  0.00  0.00    -0.319 OA
ATOM     15  C           0     136.534 134.065 144.336  0.00  0.00     0.134 C 
ATOM     16  C           0     136.017 132.693 143.863  0.00  0.00     0.198 C 
ATOM     17  C           0     134.883 132.240 144.776  0.00  0.00     0.182 C 
ATOM     18  H           0     135.168 133.162 149.788  0.00  0.00     0.180 HD
ATOM     19  H           0     133.533 131.320 146.806  0.00  0.00     0.178 HD
ENDROOT
BRANCH  15  20
ATOM     20  O           0     135.454 135.000 144.370  0.00  0.00    -0.382 OA
ATOM     21  H           0     135.660 135.690 143.725  0.00  0.00     0.210 HD
ENDBRANCH  15  20
BRANCH  15  22
ATOM     22  C           0     137.629 134.571 143.395  0.00  0.00     0.207 C 
BRANCH  22  23
ATOM     23  O           0     137.499 133.930 142.125  0.00  0.00    -0.398 OA
ATOM     24  H           0     137.838 133.031 142.230  0.00  0.00     0.209 HD
ENDBRANCH  22  23
ENDBRANCH  15  22
BRANCH  17  25
ATOM     25  O           0     134.375 130.985 144.322  0.00  0.00    -0.390 OA
ATOM     26  H           0     134.686 130.870 143.413  0.00  0.00     0.210 HD
ENDBRANCH  17  25
BRANCH   6  27
ATOM     27  O           0     136.912 134.547 148.616  0.00  0.00    -0.376 OA
ATOM     28  H           0     136.108 135.051 148.808  0.00  0.00     0.212 HD
ENDBRANCH   6  27
BRANCH  13  29
ATOM     29  O           0     138.724 130.750 145.133  0.00  0.00    -0.341 OA
ATOM     30  H           0     138.357 129.871 145.297  0.00  0.00     0.215 HD
ENDBRANCH  13  29
BRANCH   9  31
ATOM     31  O           0     137.153 130.947 147.467  0.00  0.00    -0.385 OA
ATOM     32  H           0     136.420 131.005 148.095  0.00  0.00     0.210 HD
ENDBRANCH   9  31
TORSDOF 7
ENDMDL
MODEL 8
REMARK VINA RESULT:      -7.1      2.688      4.553
REMARK  7 active torsions:
REMARK  status: ('A' for Active; 'I' for Inactive)
REMARK    1  A    between atoms: C_6  and  O_7 
REMARK    2  A    between atoms: C_10  and  O_11 
REMARK    3  A    between atoms: C_15  and  O_16 
REMARK    4  A    between atoms: C_18  and  O_19 
REMARK    5  A    between atoms: C_18  and  C_20 
REMARK    6  A    between atoms: C_20  and  O_21 
REMARK    7  A    between atoms: C_23  and  O_24 
ROOT
ATOM      1  N           0     135.093 128.697 147.163  0.00  0.00    -0.235 N 
ATOM      2  H           0     134.196 128.337 147.079  0.00  0.00     0.174 HD
ATOM      3  H           0     135.643 128.458 147.925  0.00  0.00     0.174 HD
ATOM      4  C           0     135.560 129.500 146.248  0.00  0.00     0.670 C 
ATOM      5  N           0     134.807 129.861 145.142  0.00  0.00    -0.200 N 
ATOM      6  C           0     134.851 131.268 144.708  0.00  0.00     0.244 C 
ATOM      7  C           0     136.318 131.698 144.615  0.00  0.00     0.101 C 
ATOM      8  C           0     136.995 131.443 145.968  0.00  0.00     0.119 C 
ATOM      9  C           0     136.313 132.337 147.013  0.00  0.00     0.243 C 
ATOM     10  N           0     136.838 130.040 146.335  0.00  0.00    -0.211 N 
ATOM     11  C           0     136.417 133.185 144.278  0.00  0.00     0.177 C 
ATOM     12  O           0     135.826 133.982 145.299  0.00  0.00    -0.322 OA
ATOM     13  C           0     136.494 133.783 146.534  0.00  0.00     0.311 C 
ATOM     14  O           0     137.869 134.118 146.501  0.00  0.00    -0.319 OA
ATOM     15  C           0     137.901 133.561 144.156  0.00  0.00     0.134 C 
ATOM     16  C           0     138.551 133.327 145.533  0.00  0.00     0.198 C 
ATOM     17  C           0     138.466 131.846 145.884  0.00  0.00     0.182 C 
ATOM     18  H           0     134.269 129.208 144.668  0.00  0.00     0.180 HD
ATOM     19  H           0     137.593 129.504 146.623  0.00  0.00     0.178 HD
ENDROOT
BRANCH  15  20
ATOM     20  O           0     138.533 132.733 143.179  0.00  0.00    -0.382 OA
ATOM     21  H           0     139.388 132.470 143.545  0.00  0.00     0.210 HD
ENDBRANCH  15  20
BRANCH  15  22
ATOM     22  C           0     138.031 135.032 143.753  0.00  0.00     0.207 C 
BRANCH  22  23
ATOM     23  O           0     136.774 135.504 143.266  0.00  0.00    -0.398 OA
ATOM     24  H           0     136.838 135.524 142.301  0.00  0.00     0.209 HD
ENDBRANCH  22  23
ENDBRANCH  15  22
BRANCH  17  25
ATOM     25  O           0     139.099 131.615 147.144  0.00  0.00    -0.390 OA
ATOM     26  H           0     138.440 131.803 147.826  0.00  0.00     0.210 HD
ENDBRANCH  17  25
BRANCH   6  27
ATOM     27  O           0     134.229 131.397 143.428  0.00  0.00    -0.376 OA
ATOM     28  H           0     133.879 132.298 143.377  0.00  0.00     0.212 HD
ENDBRANCH   6  27
BRANCH  13  29
ATOM     29  O           0     135.882 134.639 147.500  0.00  0.00    -0.341 OA
ATOM     30  H           0     134.934 134.452 147.479  0.00  0.00     0.215 HD
ENDBRANCH  13  29
BRANCH   9  31
ATOM     31  O           0     134.922 132.018 147.098  0.00  0.00    -0.385 OA
ATOM     32  H           0     134.600 131.926 146.192  0.00  0.00     0.210 HD
ENDBRANCH   9  31
TORSDOF 7
ENDMDL
MODEL 9
REMARK VINA RESULT:      -6.8      2.023      3.927
REMARK  7 active torsions:
REMARK  status: ('A' for Active; 'I' for Inactive)
REMARK    1  A    between atoms: C_6  and  O_7 
REMARK    2  A    between atoms: C_10  and  O_11 
REMARK    3  A    between atoms: C_15  and  O_16 
REMARK    4  A    between atoms: C_18  and  O_19 
REMARK    5  A    between atoms: C_18  and  C_20 
REMARK    6  A    between atoms: C_20  and  O_21 
REMARK    7  A    between atoms: C_23  and  O_24 
ROOT
ATOM      1  N           0     136.168 133.473 141.642  0.00  0.00    -0.235 N 
ATOM      2  H           0     136.629 134.063 141.024  0.00  0.00     0.174 HD
ATOM      3  H           0     135.218 133.307 141.538  0.00  0.00     0.174 HD
ATOM      4  C           0     136.827 132.902 142.611  0.00  0.00     0.670 C 
ATOM      5  N           0     138.186 133.110 142.789  0.00  0.00    -0.200 N 
ATOM      6  C           0     138.678 133.302 144.165  0.00  0.00     0.244 C 
ATOM      7  C           0     138.111 132.180 145.040  0.00  0.00     0.101 C 
ATOM      8  C           0     136.582 132.185 144.921  0.00  0.00     0.119 C 
ATOM      9  C           0     136.069 133.518 145.483  0.00  0.00     0.243 C 
ATOM     10  N           0     136.202 132.056 143.519  0.00  0.00    -0.211 N 
ATOM     11  C           0     138.500 132.397 146.502  0.00  0.00     0.177 C 
ATOM     12  O           0     137.957 133.614 147.001  0.00  0.00    -0.322 OA
ATOM     13  C           0     136.540 133.588 146.940  0.00  0.00     0.311 C 
ATOM     14  O           0     135.955 132.541 147.693  0.00  0.00    -0.319 OA
ATOM     15  C           0     137.946 131.232 147.334  0.00  0.00     0.134 C 
ATOM     16  C           0     136.410 131.276 147.224  0.00  0.00     0.198 C 
ATOM     17  C           0     136.003 131.055 145.772  0.00  0.00     0.182 C 
ATOM     18  H           0     138.793 133.128 142.034  0.00  0.00     0.180 HD
ATOM     19  H           0     135.544 131.404 143.230  0.00  0.00     0.178 HD
ENDROOT
BRANCH  15  20
ATOM     20  O           0     138.430 129.992 146.814  0.00  0.00    -0.382 OA
ATOM     21  H           0     138.363 129.344 147.528  0.00  0.00     0.210 HD
ENDBRANCH  15  20
BRANCH  15  22
ATOM     22  C           0     138.377 131.386 148.794  0.00  0.00     0.207 C 
BRANCH  22  23
ATOM     23  O           0     137.320 130.950 149.650  0.00  0.00    -0.398 OA
ATOM     24  H           0     137.213 130.000 149.501  0.00  0.00     0.209 HD
ENDBRANCH  22  23
ENDBRANCH  15  22
BRANCH  17  25
ATOM     25  O           0     134.578 131.059 145.668  0.00  0.00    -0.390 OA
ATOM     26  H           0     134.365 130.862 144.745  0.00  0.00     0.210 HD
ENDBRANCH  17  25
BRANCH   6  27
ATOM     27  O           0     140.106 133.247 144.177  0.00  0.00    -0.376 OA
ATOM     28  H           0     140.421 134.152 144.036  0.00  0.00     0.212 HD
ENDBRANCH   6  27
BRANCH  13  29
ATOM     29  O           0     136.060 134.815 147.493  0.00  0.00    -0.341 OA
ATOM     30  H           0     135.319 134.589 148.072  0.00  0.00     0.215 HD
ENDBRANCH  13  29
BRANCH   9  31
ATOM     31  O           0     136.617 134.607 144.736  0.00  0.00    -0.385 OA
ATOM     32  H           0     136.779 135.324 145.365  0.00  0.00     0.210 HD
ENDBRANCH   9  31
TORSDOF 7
ENDMDL
