# created with PyMOL 2.3.4
@<TRIPOS>MOLECULE
ligand_out_0001
32 35 1                 
SMALL
USER_CHARGES
@<TRIPOS>ATOM
1	   N	134.400	136.184	142.200	N.3	1	UNK0	-0.235	
2	   N	134.214	134.100	143.266	N.pl3	1	UNK0	-0.200	
3	   N	135.832	135.661	143.991	N.3	1	UNK0	-0.211	
4	   C	134.798	135.348	143.117	C.3	1	UNK0	0.670	
5	   C	135.101	132.951	143.519	C.2	1	UNK0	0.244	
6	   C	136.054	133.320	144.659	C.3	1	UNK0	0.101	
7	   C	136.798	134.608	144.285	C.3	1	UNK0	0.119	
8	   C	137.650	134.316	143.042	C.2	1	UNK0	0.243	
9	   C	137.071	132.203	144.886	C.2	1	UNK0	0.177	
10	   C	138.607	133.182	143.425	C.3	1	UNK0	0.311	
11	   C	137.978	132.597	146.061	C.3	1	UNK0	0.134	
12	   C	138.736	133.874	145.649	C.2	1	UNK0	0.198	
13	   C	137.737	135.002	145.424	C.2	1	UNK0	0.182	
14	   C	138.966	131.467	146.356	C.2	1	UNK0	0.207	
15	   O	137.879	132.003	143.732	O.2	1	UNK0	-0.322	
16	   O	139.474	133.604	144.462	O.2	1	UNK0	-0.319	
17	   O	137.184	132.862	147.219	O.2	1	UNK0	-0.382	
18	   O	138.328	130.208	146.134	O.2	1	UNK0	-0.398	
19	   O	138.435	136.199	145.077	O.2	1	UNK0	-0.390	
20	   O	134.320	131.813	143.893	O.2	1	UNK0	-0.376	
21	   O	139.426	132.902	142.288	O.2	1	UNK0	-0.341	
22	   O	136.812	133.907	141.958	O.2	1	UNK0	-0.385	
23	   H	133.678	135.939	141.600	 H	1	UNK0	0.174	
24	   H	134.823	137.053	142.119	 H	1	UNK0	0.174	
25	   H	133.253	133.986	143.207	 H	1	UNK0	0.180	
26	   H	135.904	136.541	144.391	 H	1	UNK0	0.178	
27	   H	137.595	133.609	147.675	 H	1	UNK0	0.210	
28	   H	137.414	130.302	146.434	 H	1	UNK0	0.209	
29	   H	138.601	136.159	144.125	 H	1	UNK0	0.210	
30	   H	134.494	131.126	143.234	 H	1	UNK0	0.212	
31	   H	139.354	131.953	142.119	 H	1	UNK0	0.215	
32	   H	137.307	134.070	141.144	 H	1	UNK0	0.210	
@<TRIPOS>BOND
1 1 4 1
2 1 23 1
3 1 24 1
4 2 5 1
5 2 25 1
6 3 26 1
7 2 4 1
8 3 4 1
9 5 6 1
10 5 20 2
11 6 7 1
12 6 9 1
13 3 7 1
14 7 8 1
15 7 13 1
16 8 10 1
17 8 22 2
18 9 11 1
19 9 15 2
20 10 16 2
21 10 21 2
22 11 12 1
23 11 14 1
24 11 17 2
25 12 13 1
26 13 19 2
27 14 18 2
28 10 15 2
29 12 16 2
30 17 27 1
31 18 28 1
32 19 29 1
33 20 30 1
34 21 31 1
35 22 32 1
@<TRIPOS>SUBSTRUCTURE
1	UNK0	1	GROUP	1 ****	UNK
