# created with PyMOL 2.3.4
@<TRIPOS>MOLECULE
ligand_out_0001
32 34 1                 
SMALL
USER_CHARGES
@<TRIPOS>ATOM
1	   N	134.906	131.962	146.712	N.3	1	UNK0	-0.235	
2	   N	136.379	133.714	146.167	N.3	1	UNK0	-0.218	
3	   N	136.174	135.793	143.903	N.3	1	UNK0	-0.216	
4	   N	134.386	136.819	142.742	N.3	1	UNK0	-0.235	
5	   N	134.537	134.476	143.037	N.3	1	UNK0	-0.191	
6	   N	135.162	132.646	144.488	N.3	1	UNK0	-0.183	
7	   N	139.977	130.642	146.921	N.pl3	1	UNK0	-0.337	
8	   C	135.456	132.741	145.823	C.3	1	UNK0	0.672	
9	   C	137.381	134.097	145.177	C.3	1	UNK0	0.151	
10	   C	136.773	134.443	143.832	C.3	1	UNK0	0.180	
11	   C	134.994	135.761	143.199	C.3	1	UNK0	0.670	
12	   C	135.611	133.549	143.427	C.3	1	UNK0	0.217	
13	   C	134.387	131.596	143.804	C.3	1	UNK0	0.150	
14	   C	135.164	131.340	142.490	C.3	1	UNK0	0.093	
15	   C	135.972	132.639	142.242	C.3	1	UNK0	0.209	
16	   C	138.359	132.936	144.990	C.2	1	UNK0	0.208	
17	   C	140.085	131.821	146.276	C.2	1	UNK0	0.362	
18	   C	141.114	129.719	146.956	C.3	1	UNK0	0.154	
19	   C	138.724	130.284	147.589	C.3	1	UNK0	0.154	
20	   O	139.039	132.669	146.245	O.2	1	UNK0	-0.302	
21	   O	141.125	132.118	145.723	O.co2	1	UNK0	-0.238	
22	   O	135.580	133.241	141.006	O.2	1	UNK0	-0.362	
23	   O	137.374	132.359	142.239	O.2	1	UNK0	-0.362	
24	   H	135.140	132.054	147.649	 H	1	UNK0	0.174	
25	   H	134.259	131.293	146.437	 H	1	UNK0	0.174	
26	   H	134.765	137.699	142.892	 H	1	UNK0	0.174	
27	   H	133.554	136.726	142.251	 H	1	UNK0	0.174	
28	   H	136.360	134.132	147.043	 H	1	UNK0	0.178	
29	   H	136.546	136.561	144.362	 H	1	UNK0	0.178	
30	   H	133.656	134.225	142.716	 H	1	UNK0	0.180	
31	   H	136.093	134.056	140.919	 H	1	UNK0	0.213	
32	   H	137.727	132.695	143.073	 H	1	UNK0	0.213	
@<TRIPOS>BOND
1 1 8 1
2 1 24 1
3 1 25 1
4 2 9 1
5 2 28 1
6 3 11 1
7 3 29 1
8 4 26 1
9 4 27 1
10 5 30 1
11 6 13 1
12 7 18 1
13 7 19 1
14 2 8 1
15 6 8 1
16 9 10 1
17 9 16 1
18 3 10 1
19 10 12 1
20 4 11 1
21 5 11 1
22 5 12 1
23 6 12 1
24 12 15 1
25 13 14 1
26 14 15 1
27 15 22 2
28 15 23 2
29 16 20 2
30 7 17 1
31 17 21 2
32 17 20 2
33 22 31 1
34 23 32 1
@<TRIPOS>SUBSTRUCTURE
1	UNK0	1	GROUP	1 ****	UNK
