MODEL 1
REMARK VINA RESULT:      -7.2      0.000      0.000
REMARK  5 active torsions:
REMARK  status: ('A' for Active; 'I' for Inactive)
REMARK    1  A    between atoms: C_6  and  C_7 
REMARK    2  A    between atoms: C_7  and  O_8 
REMARK    3  A    between atoms: O_8  and  C_9 
REMARK       I    between atoms: C_9  and  N_10 
REMARK    4  A    between atoms: C_25  and  O_26 
REMARK    5  A    between atoms: C_25  and  O_27 
ROOT
ATOM      1  N           0     134.906 131.962 146.712  0.00  0.00    -0.235 N 
ATOM      2  H           0     135.140 132.054 147.649  0.00  0.00     0.174 HD
ATOM      3  H           0     134.259 131.293 146.437  0.00  0.00     0.174 HD
ATOM      4  C           0     135.456 132.741 145.823  0.00  0.00     0.672 C 
ATOM      5  N           0     136.379 133.714 146.167  0.00  0.00    -0.218 N 
ATOM      6  C           0     137.381 134.097 145.177  0.00  0.00     0.151 C 
ATOM      7  C           0     136.773 134.443 143.832  0.00  0.00     0.180 C 
ATOM      8  N           0     136.174 135.793 143.903  0.00  0.00    -0.216 N 
ATOM      9  C           0     134.994 135.761 143.199  0.00  0.00     0.670 C 
ATOM     10  N           0     134.386 136.819 142.742  0.00  0.00    -0.235 N 
ATOM     11  H           0     134.765 137.699 142.892  0.00  0.00     0.174 HD
ATOM     12  H           0     133.554 136.726 142.251  0.00  0.00     0.174 HD
ATOM     13  C           0     135.611 133.549 143.427  0.00  0.00     0.217 C 
ATOM     14  N           0     134.537 134.476 143.037  0.00  0.00    -0.191 N 
ATOM     15  N           0     135.162 132.646 144.488  0.00  0.00    -0.183 N 
ATOM     16  C           0     134.387 131.596 143.804  0.00  0.00     0.150 C 
ATOM     17  C           0     135.164 131.340 142.490  0.00  0.00     0.093 C 
ATOM     18  C           0     135.972 132.639 142.242  0.00  0.00     0.209 C 
ATOM     19  H           0     136.360 134.132 147.043  0.00  0.00     0.178 HD
ATOM     20  H           0     136.546 136.561 144.362  0.00  0.00     0.178 HD
ATOM     21  H           0     133.656 134.225 142.716  0.00  0.00     0.180 HD
ENDROOT
BRANCH   6  22
ATOM     22  C           0     138.359 132.936 144.990  0.00  0.00     0.208 C 
BRANCH  22  23
ATOM     23  O           0     139.039 132.669 146.245  0.00  0.00    -0.302 OA
BRANCH  23  24
ATOM     24  C           0     140.085 131.821 146.276  0.00  0.00     0.362 C 
ATOM     25  N           0     139.977 130.642 146.921  0.00  0.00    -0.337 N 
ATOM     26  C           0     141.114 129.719 146.956  0.00  0.00     0.154 C 
ATOM     27  C           0     138.724 130.284 147.589  0.00  0.00     0.154 C 
ATOM     28  O           0     141.125 132.118 145.723  0.00  0.00    -0.238 OA
ENDBRANCH  23  24
ENDBRANCH  22  23
ENDBRANCH   6  22
BRANCH  18  29
ATOM     29  O           0     135.580 133.241 141.006  0.00  0.00    -0.362 OA
ATOM     30  H           0     136.093 134.056 140.919  0.00  0.00     0.213 HD
ENDBRANCH  18  29
BRANCH  18  31
ATOM     31  O           0     137.374 132.359 142.239  0.00  0.00    -0.362 OA
ATOM     32  H           0     137.727 132.695 143.073  0.00  0.00     0.213 HD
ENDBRANCH  18  31
TORSDOF 5
ENDMDL
MODEL 2
REMARK VINA RESULT:      -6.9      2.622      5.814
REMARK  5 active torsions:
REMARK  status: ('A' for Active; 'I' for Inactive)
REMARK    1  A    between atoms: C_6  and  C_7 
REMARK    2  A    between atoms: C_7  and  O_8 
REMARK    3  A    between atoms: O_8  and  C_9 
REMARK       I    between atoms: C_9  and  N_10 
REMARK    4  A    between atoms: C_25  and  O_26 
REMARK    5  A    between atoms: C_25  and  O_27 
ROOT
ATOM      1  N           0     136.953 133.677 142.126  0.00  0.00    -0.235 N 
ATOM      2  H           0     137.262 134.547 141.827  0.00  0.00     0.174 HD
ATOM      3  H           0     136.577 133.050 141.488  0.00  0.00     0.174 HD
ATOM      4  C           0     137.049 133.348 143.384  0.00  0.00     0.672 C 
ATOM      5  N           0     137.583 134.204 144.331  0.00  0.00    -0.218 N 
ATOM      6  C           0     137.120 134.085 145.709  0.00  0.00     0.151 C 
ATOM      7  C           0     137.190 132.664 146.231  0.00  0.00     0.180 C 
ATOM      8  N           0     138.594 132.337 146.563  0.00  0.00    -0.216 N 
ATOM      9  C           0     138.822 131.042 146.168  0.00  0.00     0.670 C 
ATOM     10  N           0     139.800 130.303 146.613  0.00  0.00    -0.235 N 
ATOM     11  H           0     140.422 130.662 147.265  0.00  0.00     0.174 HD
ATOM     12  H           0     139.905 129.393 146.292  0.00  0.00     0.174 HD
ATOM     13  C           0     136.802 131.607 145.208  0.00  0.00     0.217 C 
ATOM     14  N           0     137.894 130.621 145.248  0.00  0.00    -0.191 N 
ATOM     15  N           0     136.621 132.134 143.855  0.00  0.00    -0.183 N 
ATOM     16  C           0     135.839 131.110 143.139  0.00  0.00     0.150 C 
ATOM     17  C           0     134.826 130.597 144.192  0.00  0.00     0.093 C 
ATOM     18  C           0     135.470 130.926 145.562  0.00  0.00     0.209 C 
ATOM     19  H           0     138.249 134.866 144.084  0.00  0.00     0.178 HD
ATOM     20  H           0     139.235 132.930 146.983  0.00  0.00     0.178 HD
ATOM     21  H           0     137.949 129.811 144.717  0.00  0.00     0.180 HD
ENDROOT
BRANCH   6  22
ATOM     22  C           0     135.669 134.566 145.786  0.00  0.00     0.208 C 
BRANCH  22  23
ATOM     23  O           0     135.638 136.017 145.755  0.00  0.00    -0.302 OA
BRANCH  23  24
ATOM     24  C           0     135.284 136.659 144.625  0.00  0.00     0.362 C 
ATOM     25  N           0     135.159 138.001 144.622  0.00  0.00    -0.337 N 
ATOM     26  C           0     134.775 138.700 143.394  0.00  0.00     0.154 C 
ATOM     27  C           0     135.408 138.762 145.849  0.00  0.00     0.154 C 
ATOM     28  O           0     135.078 136.028 143.607  0.00  0.00    -0.238 OA
ENDBRANCH  23  24
ENDBRANCH  22  23
ENDBRANCH   6  22
BRANCH  18  29
ATOM     29  O           0     135.700 129.727 146.306  0.00  0.00    -0.362 OA
ATOM     30  H           0     136.266 129.164 145.760  0.00  0.00     0.213 HD
ENDBRANCH  18  29
BRANCH  18  31
ATOM     31  O           0     134.636 131.820 146.302  0.00  0.00    -0.362 OA
ATOM     32  H           0     133.773 131.393 146.386  0.00  0.00     0.213 HD
ENDBRANCH  18  31
TORSDOF 5
ENDMDL
MODEL 3
REMARK VINA RESULT:      -6.8     10.423     13.300
REMARK  5 active torsions:
REMARK  status: ('A' for Active; 'I' for Inactive)
REMARK    1  A    between atoms: C_6  and  C_7 
REMARK    2  A    between atoms: C_7  and  O_8 
REMARK    3  A    between atoms: O_8  and  C_9 
REMARK       I    between atoms: C_9  and  N_10 
REMARK    4  A    between atoms: C_25  and  O_26 
REMARK    5  A    between atoms: C_25  and  O_27 
ROOT
ATOM      1  N           0     128.861 133.468 131.618  0.00  0.00    -0.235 N 
ATOM      2  H           0     128.078 133.055 131.222  0.00  0.00     0.174 HD
ATOM      3  H           0     129.121 134.365 131.356  0.00  0.00     0.174 HD
ATOM      4  C           0     129.561 132.819 132.506  0.00  0.00     0.672 C 
ATOM      5  N           0     129.227 131.540 132.917  0.00  0.00    -0.218 N 
ATOM      6  C           0     130.297 130.662 133.379  0.00  0.00     0.151 C 
ATOM      7  C           0     131.171 131.309 134.435  0.00  0.00     0.180 C 
ATOM      8  N           0     130.459 131.297 135.731  0.00  0.00    -0.216 N 
ATOM      9  C           0     130.710 132.496 136.352  0.00  0.00     0.670 C 
ATOM     10  N           0     130.559 132.703 137.631  0.00  0.00    -0.235 N 
ATOM     11  H           0     130.252 131.985 138.205  0.00  0.00     0.174 HD
ATOM     12  H           0     130.755 133.575 138.007  0.00  0.00     0.174 HD
ATOM     13  C           0     131.455 132.782 134.188  0.00  0.00     0.217 C 
ATOM     14  N           0     131.140 133.448 135.462  0.00  0.00    -0.191 N 
ATOM     15  N           0     130.678 133.358 133.090  0.00  0.00    -0.183 N 
ATOM     16  C           0     131.387 134.595 132.717  0.00  0.00     0.150 C 
ATOM     17  C           0     132.886 134.231 132.841  0.00  0.00     0.093 C 
ATOM     18  C           0     132.928 133.030 133.820  0.00  0.00     0.209 C 
ATOM     19  H           0     128.305 131.237 132.899  0.00  0.00     0.178 HD
ATOM     20  H           0     129.913 130.575 136.078  0.00  0.00     0.178 HD
ATOM     21  H           0     131.223 134.398 135.643  0.00  0.00     0.180 HD
ENDROOT
BRANCH   6  22
ATOM     22  C           0     131.171 130.277 132.184  0.00  0.00     0.208 C 
BRANCH  22  23
ATOM     23  O           0     130.920 128.892 131.827  0.00  0.00    -0.302 OA
BRANCH  23  24
ATOM     24  C           0     131.531 127.902 132.504  0.00  0.00     0.362 C 
ATOM     25  N           0     131.037 126.648 132.456  0.00  0.00    -0.337 N 
ATOM     26  C           0     131.701 125.570 133.192  0.00  0.00     0.154 C 
ATOM     27  C           0     129.835 126.364 131.668  0.00  0.00     0.154 C 
ATOM     28  O           0     132.527 128.136 133.158  0.00  0.00    -0.238 OA
ENDBRANCH  23  24
ENDBRANCH  22  23
ENDBRANCH   6  22
BRANCH  18  29
ATOM     29  O           0     133.689 133.361 134.983  0.00  0.00    -0.362 OA
ATOM     30  H           0     134.611 133.439 134.700  0.00  0.00     0.213 HD
ENDBRANCH  18  29
BRANCH  18  31
ATOM     31  O           0     133.479 131.880 133.173  0.00  0.00    -0.362 OA
ATOM     32  H           0     132.880 131.653 132.449  0.00  0.00     0.213 HD
ENDBRANCH  18  31
TORSDOF 5
ENDMDL
MODEL 4
REMARK VINA RESULT:      -6.8      2.494      5.640
REMARK  5 active torsions:
REMARK  status: ('A' for Active; 'I' for Inactive)
REMARK    1  A    between atoms: C_6  and  C_7 
REMARK    2  A    between atoms: C_7  and  O_8 
REMARK    3  A    between atoms: O_8  and  C_9 
REMARK       I    between atoms: C_9  and  N_10 
REMARK    4  A    between atoms: C_25  and  O_26 
REMARK    5  A    between atoms: C_25  and  O_27 
ROOT
ATOM      1  N           0     139.063 133.326 148.704  0.00  0.00    -0.235 N 
ATOM      2  H           0     138.920 133.707 149.585  0.00  0.00     0.174 HD
ATOM      3  H           0     139.955 133.060 148.428  0.00  0.00     0.174 HD
ATOM      4  C           0     138.056 133.168 147.891  0.00  0.00     0.672 C 
ATOM      5  N           0     136.765 133.526 148.239  0.00  0.00    -0.218 N 
ATOM      6  C           0     135.845 133.916 147.175  0.00  0.00     0.151 C 
ATOM      7  C           0     135.792 132.904 146.047  0.00  0.00     0.180 C 
ATOM      8  N           0     134.976 131.746 146.472  0.00  0.00    -0.216 N 
ATOM      9  C           0     135.588 130.612 145.996  0.00  0.00     0.670 C 
ATOM     10  N           0     134.990 129.461 145.858  0.00  0.00    -0.235 N 
ATOM     11  H           0     134.056 129.369 146.098  0.00  0.00     0.174 HD
ATOM     12  H           0     135.481 128.698 145.514  0.00  0.00     0.174 HD
ATOM     13  C           0     137.140 132.293 145.697  0.00  0.00     0.217 C 
ATOM     14  N           0     136.905 130.840 145.682  0.00  0.00    -0.191 N 
ATOM     15  N           0     138.208 132.641 146.635  0.00  0.00    -0.183 N 
ATOM     16  C           0     139.464 132.359 145.917  0.00  0.00     0.150 C 
ATOM     17  C           0     139.182 132.804 144.462  0.00  0.00     0.093 C 
ATOM     18  C           0     137.640 132.756 144.319  0.00  0.00     0.209 C 
ATOM     19  H           0     136.479 133.518 149.167  0.00  0.00     0.178 HD
ATOM     20  H           0     134.159 131.781 146.993  0.00  0.00     0.178 HD
ATOM     21  H           0     137.566 130.159 145.482  0.00  0.00     0.180 HD
ENDROOT
BRANCH   6  22
ATOM     22  C           0     136.292 135.264 146.606  0.00  0.00     0.208 C 
BRANCH  22  23
ATOM     23  O           0     135.449 135.616 145.477  0.00  0.00    -0.302 OA
BRANCH  23  24
ATOM     24  C           0     135.340 136.902 145.094  0.00  0.00     0.362 C 
ATOM     25  N           0     134.882 137.201 143.861  0.00  0.00    -0.337 N 
ATOM     26  C           0     134.764 138.600 143.443  0.00  0.00     0.154 C 
ATOM     27  C           0     134.505 136.128 142.939  0.00  0.00     0.154 C 
ATOM     28  O           0     135.653 137.793 145.858  0.00  0.00    -0.238 OA
ENDBRANCH  23  24
ENDBRANCH  22  23
ENDBRANCH   6  22
BRANCH  18  29
ATOM     29  O           0     137.262 131.821 143.306  0.00  0.00    -0.362 OA
ATOM     30  H           0     136.625 132.272 142.734  0.00  0.00     0.213 HD
ENDBRANCH  18  29
BRANCH  18  31
ATOM     31  O           0     137.128 134.056 144.015  0.00  0.00    -0.362 OA
ATOM     32  H           0     137.862 134.566 143.648  0.00  0.00     0.213 HD
ENDBRANCH  18  31
TORSDOF 5
ENDMDL
MODEL 5
REMARK VINA RESULT:      -6.7     10.760     12.349
REMARK  5 active torsions:
REMARK  status: ('A' for Active; 'I' for Inactive)
REMARK    1  A    between atoms: C_6  and  C_7 
REMARK    2  A    between atoms: C_7  and  O_8 
REMARK    3  A    between atoms: O_8  and  C_9 
REMARK       I    between atoms: C_9  and  N_10 
REMARK    4  A    between atoms: C_25  and  O_26 
REMARK    5  A    between atoms: C_25  and  O_27 
ROOT
ATOM      1  N           0     134.269 133.428 132.159  0.00  0.00    -0.235 N 
ATOM      2  H           0     134.252 132.779 131.439  0.00  0.00     0.174 HD
ATOM      3  H           0     135.114 133.802 132.455  0.00  0.00     0.174 HD
ATOM      4  C           0     133.156 133.802 132.727  0.00  0.00     0.672 C 
ATOM      5  N           0     131.926 133.302 132.336  0.00  0.00    -0.218 N 
ATOM      6  C           0     130.858 133.242 133.329  0.00  0.00     0.151 C 
ATOM      7  C           0     130.652 134.561 134.048  0.00  0.00     0.180 C 
ATOM      8  N           0     129.918 135.488 133.160  0.00  0.00    -0.216 N 
ATOM      9  C           0     130.465 136.738 133.324  0.00  0.00     0.670 C 
ATOM     10  N           0     129.865 137.848 132.995  0.00  0.00    -0.235 N 
ATOM     11  H           0     128.976 137.823 132.609  0.00  0.00     0.174 HD
ATOM     12  H           0     130.309 138.699 133.138  0.00  0.00     0.174 HD
ATOM     13  C           0     131.941 135.303 134.366  0.00  0.00     0.217 C 
ATOM     14  N           0     131.721 136.673 133.876  0.00  0.00    -0.191 N 
ATOM     15  N           0     133.130 134.711 133.752  0.00  0.00    -0.183 N 
ATOM     16  C           0     134.271 135.257 134.507  0.00  0.00     0.150 C 
ATOM     17  C           0     133.777 135.295 135.974  0.00  0.00     0.093 C 
ATOM     18  C           0     132.231 135.328 135.876  0.00  0.00     0.209 C 
ATOM     19  H           0     131.778 133.000 131.426  0.00  0.00     0.178 HD
ATOM     20  H           0     129.185 135.257 132.570  0.00  0.00     0.178 HD
ATOM     21  H           0     132.353 137.406 133.935  0.00  0.00     0.180 HD
ENDROOT
BRANCH   6  22
ATOM     22  C           0     131.204 132.167 134.362  0.00  0.00     0.208 C 
BRANCH  22  23
ATOM     23  O           0     131.563 130.938 133.679  0.00  0.00    -0.302 OA
BRANCH  23  24
ATOM     24  C           0     132.781 130.395 133.867  0.00  0.00     0.362 C 
ATOM     25  N           0     133.453 129.869 132.823  0.00  0.00    -0.337 N 
ATOM     26  C           0     134.778 129.278 133.026  0.00  0.00     0.154 C 
ATOM     27  C           0     132.857 129.886 131.485  0.00  0.00     0.154 C 
ATOM     28  O           0     133.276 130.380 134.976  0.00  0.00    -0.238 OA
ENDBRANCH  23  24
ENDBRANCH  22  23
ENDBRANCH   6  22
BRANCH  18  29
ATOM     29  O           0     131.719 136.525 136.467  0.00  0.00    -0.362 OA
ATOM     30  H           0     131.715 137.199 135.773  0.00  0.00     0.213 HD
ENDBRANCH  18  29
BRANCH  18  31
ATOM     31  O           0     131.668 134.178 136.510  0.00  0.00    -0.362 OA
ATOM     32  H           0     131.431 134.442 137.409  0.00  0.00     0.213 HD
ENDBRANCH  18  31
TORSDOF 5
ENDMDL
MODEL 6
REMARK VINA RESULT:      -6.5      9.710     13.078
REMARK  5 active torsions:
REMARK  status: ('A' for Active; 'I' for Inactive)
REMARK    1  A    between atoms: C_6  and  C_7 
REMARK    2  A    between atoms: C_7  and  O_8 
REMARK    3  A    between atoms: O_8  and  C_9 
REMARK       I    between atoms: C_9  and  N_10 
REMARK    4  A    between atoms: C_25  and  O_26 
REMARK    5  A    between atoms: C_25  and  O_27 
ROOT
ATOM      1  N           0     131.721 137.459 132.043  0.00  0.00    -0.235 N 
ATOM      2  H           0     130.900 137.904 131.778  0.00  0.00     0.174 HD
ATOM      3  H           0     132.570 137.744 131.670  0.00  0.00     0.174 HD
ATOM      4  C           0     131.683 136.483 132.906  0.00  0.00     0.672 C 
ATOM      5  N           0     130.498 136.045 133.472  0.00  0.00    -0.218 N 
ATOM      6  C           0     130.408 134.650 133.894  0.00  0.00     0.151 C 
ATOM      7  C           0     131.565 134.230 134.779  0.00  0.00     0.180 C 
ATOM      8  N           0     131.355 134.766 136.141  0.00  0.00    -0.216 N 
ATOM      9  C           0     132.574 135.187 136.614  0.00  0.00     0.670 C 
ATOM     10  N           0     132.845 135.374 137.876  0.00  0.00    -0.235 N 
ATOM     11  H           0     132.163 135.214 138.546  0.00  0.00     0.174 HD
ATOM     12  H           0     133.729 135.673 138.142  0.00  0.00     0.174 HD
ATOM     13  C           0     132.908 134.810 134.362  0.00  0.00     0.217 C 
ATOM     14  N           0     133.471 135.386 135.594  0.00  0.00    -0.191 N 
ATOM     15  N           0     132.814 135.820 133.307  0.00  0.00    -0.183 N 
ATOM     16  C           0     134.171 135.921 132.742  0.00  0.00     0.150 C 
ATOM     17  C           0     134.692 134.463 132.732  0.00  0.00     0.093 C 
ATOM     18  C           0     133.854 133.730 133.810  0.00  0.00     0.209 C 
ATOM     19  H           0     129.748 136.649 133.586  0.00  0.00     0.178 HD
ATOM     20  H           0     130.510 134.813 136.614  0.00  0.00     0.178 HD
ATOM     21  H           0     134.331 135.829 135.673  0.00  0.00     0.180 HD
ENDROOT
BRANCH   6  22
ATOM     22  C           0     130.390 133.758 132.651  0.00  0.00     0.208 C 
BRANCH  22  23
ATOM     23  O           0     130.365 132.364 133.056  0.00  0.00    -0.302 OA
BRANCH  23  24
ATOM     24  C           0     129.572 131.490 132.408  0.00  0.00     0.362 C 
ATOM     25  N           0     129.915 130.187 132.346  0.00  0.00    -0.337 N 
ATOM     26  C           0     129.054 129.235 131.641  0.00  0.00     0.154 C 
ATOM     27  C           0     131.150 129.724 132.984  0.00  0.00     0.154 C 
ATOM     28  O           0     128.549 131.873 131.879  0.00  0.00    -0.238 OA
ENDBRANCH  23  24
ENDBRANCH  22  23
ENDBRANCH   6  22
BRANCH  18  29
ATOM     29  O           0     134.702 133.228 134.845  0.00  0.00    -0.362 OA
ATOM     30  H           0     135.604 133.498 134.622  0.00  0.00     0.213 HD
ENDBRANCH  18  29
BRANCH  18  31
ATOM     31  O           0     133.103 132.667 133.219  0.00  0.00    -0.362 OA
ATOM     32  H           0     132.849 132.072 133.937  0.00  0.00     0.213 HD
ENDBRANCH  18  31
TORSDOF 5
ENDMDL
MODEL 7
REMARK VINA RESULT:      -6.5      2.691      4.088
REMARK  5 active torsions:
REMARK  status: ('A' for Active; 'I' for Inactive)
REMARK    1  A    between atoms: C_6  and  C_7 
REMARK    2  A    between atoms: C_7  and  O_8 
REMARK    3  A    between atoms: O_8  and  C_9 
REMARK       I    between atoms: C_9  and  N_10 
REMARK    4  A    between atoms: C_25  and  O_26 
REMARK    5  A    between atoms: C_25  and  O_27 
ROOT
ATOM      1  N           0     138.734 130.879 145.541  0.00  0.00    -0.235 N 
ATOM      2  H           0     138.823 130.210 146.238  0.00  0.00     0.174 HD
ATOM      3  H           0     139.495 131.101 144.981  0.00  0.00     0.174 HD
ATOM      4  C           0     137.590 131.475 145.351  0.00  0.00     0.672 C 
ATOM      5  N           0     136.474 131.188 146.118  0.00  0.00    -0.218 N 
ATOM      6  C           0     135.478 132.238 146.307  0.00  0.00     0.151 C 
ATOM      7  C           0     135.034 132.867 145.001  0.00  0.00     0.180 C 
ATOM      8  N           0     134.094 131.953 144.317  0.00  0.00    -0.216 N 
ATOM      9  C           0     134.381 131.993 142.974  0.00  0.00     0.670 C 
ATOM     10  N           0     133.556 131.615 142.038  0.00  0.00    -0.235 N 
ATOM     11  H           0     132.677 131.280 142.273  0.00  0.00     0.174 HD
ATOM     12  H           0     133.822 131.671 141.106  0.00  0.00     0.174 HD
ATOM     13  C           0     136.155 133.060 143.993  0.00  0.00     0.217 C 
ATOM     14  N           0     135.643 132.482 142.740  0.00  0.00    -0.191 N 
ATOM     15  N           0     137.416 132.429 144.383  0.00  0.00    -0.183 N 
ATOM     16  C           0     138.450 133.081 143.559  0.00  0.00     0.150 C 
ATOM     17  C           0     138.013 134.564 143.498  0.00  0.00     0.093 C 
ATOM     18  C           0     136.489 134.546 143.783  0.00  0.00     0.209 C 
ATOM     19  H           0     136.357 130.312 146.519  0.00  0.00     0.178 HD
ATOM     20  H           0     133.402 131.421 144.739  0.00  0.00     0.178 HD
ATOM     21  H           0     136.114 132.452 141.892  0.00  0.00     0.180 HD
ENDROOT
BRANCH   6  22
ATOM     22  C           0     136.073 133.328 147.201  0.00  0.00     0.208 C 
BRANCH  22  23
ATOM     23  O           0     135.489 133.238 148.527  0.00  0.00    -0.302 OA
BRANCH  23  24
ATOM     24  C           0     135.929 132.306 149.394  0.00  0.00     0.362 C 
ATOM     25  N           0     135.079 131.375 149.872  0.00  0.00    -0.337 N 
ATOM     26  C           0     135.557 130.361 150.815  0.00  0.00     0.154 C 
ATOM     27  C           0     133.677 131.378 149.449  0.00  0.00     0.154 C 
ATOM     28  O           0     137.092 132.303 149.745  0.00  0.00    -0.238 OA
ENDBRANCH  23  24
ENDBRANCH  22  23
ENDBRANCH   6  22
BRANCH  18  29
ATOM     29  O           0     135.767 135.073 142.668  0.00  0.00    -0.362 OA
ATOM     30  H           0     136.123 134.644 141.877  0.00  0.00     0.213 HD
ENDBRANCH  18  29
BRANCH  18  31
ATOM     31  O           0     136.196 135.293 144.966  0.00  0.00    -0.362 OA
ATOM     32  H           0     136.539 134.783 145.711  0.00  0.00     0.213 HD
ENDBRANCH  18  31
TORSDOF 5
ENDMDL
MODEL 8
REMARK VINA RESULT:      -6.5      2.804      5.971
REMARK  5 active torsions:
REMARK  status: ('A' for Active; 'I' for Inactive)
REMARK    1  A    between atoms: C_6  and  C_7 
REMARK    2  A    between atoms: C_7  and  O_8 
REMARK    3  A    between atoms: O_8  and  C_9 
REMARK       I    between atoms: C_9  and  N_10 
REMARK    4  A    between atoms: C_25  and  O_26 
REMARK    5  A    between atoms: C_25  and  O_27 
ROOT
ATOM      1  N           0     139.569 130.311 146.562  0.00  0.00    -0.235 N 
ATOM      2  H           0     140.319 130.745 146.125  0.00  0.00     0.174 HD
ATOM      3  H           0     139.673 129.421 146.935  0.00  0.00     0.174 HD
ATOM      4  C           0     138.423 130.926 146.654  0.00  0.00     0.672 C 
ATOM      5  N           0     138.227 132.198 146.145  0.00  0.00    -0.218 N 
ATOM      6  C           0     136.883 132.570 145.714  0.00  0.00     0.151 C 
ATOM      7  C           0     135.832 132.292 146.770  0.00  0.00     0.180 C 
ATOM      8  N           0     135.901 133.338 147.813  0.00  0.00    -0.216 N 
ATOM      9  C           0     135.713 132.725 149.028  0.00  0.00     0.670 C 
ATOM     10  N           0     135.353 133.349 150.115  0.00  0.00    -0.235 N 
ATOM     11  H           0     135.202 134.307 150.096  0.00  0.00     0.174 HD
ATOM     12  H           0     135.237 132.855 150.941  0.00  0.00     0.174 HD
ATOM     13  C           0     136.050 130.997 147.537  0.00  0.00     0.217 C 
ATOM     14  N           0     135.949 131.374 148.956  0.00  0.00    -0.191 N 
ATOM     15  N           0     137.334 130.353 147.257  0.00  0.00    -0.183 N 
ATOM     16  C           0     137.177 128.958 147.706  0.00  0.00     0.150 C 
ATOM     17  C           0     135.728 128.588 147.307  0.00  0.00     0.093 C 
ATOM     18  C           0     134.983 129.942 147.199  0.00  0.00     0.209 C 
ATOM     19  H           0     138.964 132.826 146.076  0.00  0.00     0.178 HD
ATOM     20  H           0     136.053 134.284 147.666  0.00  0.00     0.178 HD
ATOM     21  H           0     136.031 130.772 149.712  0.00  0.00     0.180 HD
ENDROOT
BRANCH   6  22
ATOM     22  C           0     136.533 131.782 144.451  0.00  0.00     0.208 C 
BRANCH  22  23
ATOM     23  O           0     135.825 132.644 143.523  0.00  0.00    -0.302 OA
BRANCH  23  24
ATOM     24  C           0     134.702 132.207 142.921  0.00  0.00     0.362 C 
ATOM     25  N           0     133.863 133.087 142.339  0.00  0.00    -0.337 N 
ATOM     26  C           0     132.641 132.612 141.684  0.00  0.00     0.154 C 
ATOM     27  C           0     134.171 134.519 142.362  0.00  0.00     0.154 C 
ATOM     28  O           0     134.445 131.020 142.902  0.00  0.00    -0.238 OA
ENDBRANCH  23  24
ENDBRANCH  22  23
ENDBRANCH   6  22
BRANCH  18  29
ATOM     29  O           0     133.907 129.996 148.139  0.00  0.00    -0.362 OA
ATOM     30  H           0     133.139 129.597 147.706  0.00  0.00     0.213 HD
ENDBRANCH  18  29
BRANCH  18  31
ATOM     31  O           0     134.495 130.137 145.870  0.00  0.00    -0.362 OA
ATOM     32  H           0     135.256 130.061 145.279  0.00  0.00     0.213 HD
ENDBRANCH  18  31
TORSDOF 5
ENDMDL
MODEL 9
REMARK VINA RESULT:      -6.5      6.257      8.623
REMARK  5 active torsions:
REMARK  status: ('A' for Active; 'I' for Inactive)
REMARK    1  A    between atoms: C_6  and  C_7 
REMARK    2  A    between atoms: C_7  and  O_8 
REMARK    3  A    between atoms: O_8  and  C_9 
REMARK       I    between atoms: C_9  and  N_10 
REMARK    4  A    between atoms: C_25  and  O_26 
REMARK    5  A    between atoms: C_25  and  O_27 
ROOT
ATOM      1  N           0     135.505 141.748 149.742  0.00  0.00    -0.235 N 
ATOM      2  H           0     134.622 141.642 150.129  0.00  0.00     0.174 HD
ATOM      3  H           0     135.883 142.635 149.632  0.00  0.00     0.174 HD
ATOM      4  C           0     136.186 140.699 149.374  0.00  0.00     0.672 C 
ATOM      5  N           0     135.693 139.414 149.516  0.00  0.00    -0.218 N 
ATOM      6  C           0     136.151 138.391 148.582  0.00  0.00     0.151 C 
ATOM      7  C           0     137.662 138.333 148.471  0.00  0.00     0.180 C 
ATOM      8  N           0     138.210 137.643 149.659  0.00  0.00    -0.216 N 
ATOM      9  C           0     139.356 138.303 150.030  0.00  0.00     0.670 C 
ATOM     10  N           0     140.286 137.788 150.785  0.00  0.00    -0.235 N 
ATOM     11  H           0     140.191 136.884 151.121  0.00  0.00     0.174 HD
ATOM     12  H           0     141.072 138.310 151.009  0.00  0.00     0.174 HD
ATOM     13  C           0     138.339 139.694 148.495  0.00  0.00     0.217 C 
ATOM     14  N           0     139.401 139.572 149.507  0.00  0.00    -0.191 N 
ATOM     15  N           0     137.434 140.798 148.816  0.00  0.00    -0.183 N 
ATOM     16  C           0     138.128 142.016 148.360  0.00  0.00     0.150 C 
ATOM     17  C           0     138.813 141.594 147.038  0.00  0.00     0.093 C 
ATOM     18  C           0     138.955 140.054 147.133  0.00  0.00     0.209 C 
ATOM     19  H           0     135.060 139.198 150.219  0.00  0.00     0.178 HD
ATOM     20  H           0     137.829 136.866 150.097  0.00  0.00     0.178 HD
ATOM     21  H           0     140.028 140.268 149.760  0.00  0.00     0.180 HD
ENDROOT
BRANCH   6  22
ATOM     22  C           0     135.568 138.688 147.199  0.00  0.00     0.208 C 
BRANCH  22  23
ATOM     23  O           0     135.988 137.659 146.265  0.00  0.00    -0.302 OA
BRANCH  23  24
ATOM     24  C           0     135.341 137.507 145.094  0.00  0.00     0.362 C 
ATOM     25  N           0     135.350 136.313 144.468  0.00  0.00    -0.337 N 
ATOM     26  C           0     134.645 136.147 143.195  0.00  0.00     0.154 C 
ATOM     27  C           0     136.066 135.181 145.061  0.00  0.00     0.154 C 
ATOM     28  O           0     134.747 138.445 144.602  0.00  0.00    -0.238 OA
ENDBRANCH  23  24
ENDBRANCH  22  23
ENDBRANCH   6  22
BRANCH  18  29
ATOM     29  O           0     140.332 139.675 147.087  0.00  0.00    -0.362 OA
ATOM     30  H           0     140.368 138.805 146.666  0.00  0.00     0.213 HD
ENDBRANCH  18  29
BRANCH  18  31
ATOM     31  O           0     138.228 139.422 146.076  0.00  0.00    -0.362 OA
ATOM     32  H           0     137.793 138.649 146.460  0.00  0.00     0.213 HD
ENDBRANCH  18  31
TORSDOF 5
ENDMDL
