# created with PyMOL 2.3.4
@<TRIPOS>MOLECULE
ligand_out_0001
32 34 1                 
SMALL
USER_CHARGES
@<TRIPOS>ATOM
1	   N	135.074	132.282	146.770	N.3	1	UNK0	-0.235	
2	   N	136.541	133.978	146.058	N.3	1	UNK0	-0.218	
3	   N	136.230	135.963	143.722	N.3	1	UNK0	-0.216	
4	   N	134.390	136.974	142.632	N.3	1	UNK0	-0.235	
5	   N	134.518	134.645	143.018	N.3	1	UNK0	-0.191	
6	   N	135.201	132.866	144.508	N.3	1	UNK0	-0.183	
7	   N	139.947	130.661	146.649	N.pl3	1	UNK0	-0.341	
8	   C	135.580	133.011	145.817	C.3	1	UNK0	0.672	
9	   C	137.485	134.297	144.992	C.3	1	UNK0	0.151	
10	   C	136.798	134.599	143.674	C.3	1	UNK0	0.180	
11	   C	135.008	135.924	143.096	C.3	1	UNK0	0.670	
12	   C	135.597	133.713	143.382	C.3	1	UNK0	0.217	
13	   C	134.365	131.803	143.920	C.3	1	UNK0	0.150	
14	   C	135.051	131.475	142.573	C.3	1	UNK0	0.093	
15	   C	135.866	132.745	142.218	C.3	1	UNK0	0.209	
16	   C	138.428	133.109	144.795	C.2	1	UNK0	0.208	
17	   C	140.050	131.902	146.133	C.2	1	UNK0	0.360	
18	   C	141.125	129.793	146.707	C.3	1	UNK0	0.151	
19	   O	138.967	132.701	146.080	O.2	1	UNK0	-0.302	
20	   O	141.119	132.300	145.716	O.co2	1	UNK0	-0.239	
21	   O	135.407	133.302	140.984	O.2	1	UNK0	-0.362	
22	   O	137.259	132.437	142.139	O.2	1	UNK0	-0.362	
23	   H	135.368	132.409	147.687	 H	1	UNK0	0.174	
24	   H	134.399	131.616	146.566	 H	1	UNK0	0.174	
25	   H	134.793	137.852	142.719	 H	1	UNK0	0.174	
26	   H	133.528	136.879	142.200	 H	1	UNK0	0.174	
27	   H	136.584	134.432	146.915	 H	1	UNK0	0.178	
28	   H	136.644	136.742	144.124	 H	1	UNK0	0.178	
29	   H	133.615	134.397	142.765	 H	1	UNK0	0.180	
30	   H	139.093	130.344	146.982	 H	1	UNK0	0.164	
31	   H	136.153	133.273	140.369	 H	1	UNK0	0.213	
32	   H	137.537	132.625	141.232	 H	1	UNK0	0.213	
@<TRIPOS>BOND
1 1 8 1
2 1 23 1
3 1 24 1
4 2 9 1
5 2 27 1
6 3 11 1
7 3 28 1
8 4 25 1
9 4 26 1
10 5 29 1
11 6 13 1
12 7 18 1
13 7 30 1
14 2 8 1
15 6 8 1
16 9 10 1
17 9 16 1
18 3 10 1
19 10 12 1
20 4 11 1
21 5 11 1
22 5 12 1
23 6 12 1
24 12 15 1
25 13 14 1
26 14 15 1
27 15 21 2
28 15 22 2
29 16 19 2
30 7 17 1
31 17 20 2
32 17 19 2
33 21 31 1
34 22 32 1
@<TRIPOS>SUBSTRUCTURE
1	UNK0	1	GROUP	1 ****	UNK
