# created with PyMOL 2.3.4
@<TRIPOS>MOLECULE
ligand_out_0001
32 34 1                 
SMALL
USER_CHARGES
@<TRIPOS>ATOM
1	   N	139.682	130.525	146.230	N.3	1	UNK0	-0.235	
2	   N	138.575	132.302	145.158	N.3	1	UNK0	-0.218	
3	   N	136.521	134.290	146.308	N.3	1	UNK0	-0.216	
4	   N	136.118	135.215	148.448	N.3	1	UNK0	-0.235	
5	   N	136.381	132.891	148.093	N.3	1	UNK0	-0.191	
6	   N	137.518	131.136	146.878	N.3	1	UNK0	-0.183	
7	   C	138.634	131.288	146.098	C.3	1	UNK0	0.672	
8	   C	137.267	132.682	144.631	C.3	1	UNK0	0.151	
9	   C	136.253	132.958	145.723	C.3	1	UNK0	0.180	
10	   C	136.327	134.195	147.664	C.3	1	UNK0	0.670	
11	   C	136.347	132.013	146.912	C.3	1	UNK0	0.217	
12	   C	137.208	130.036	147.810	C.3	1	UNK0	0.150	
13	   C	135.701	129.758	147.587	C.3	1	UNK0	0.093	
14	   C	135.132	131.072	146.994	C.3	1	UNK0	0.209	
15	   C	136.742	131.546	143.749	C.2	1	UNK0	0.206	
16	   C	134.842	132.120	142.363	C.2	1	UNK0	0.262	
17	   C	134.181	133.317	141.729	C.3	1	UNK0	0.077	
18	   C	132.711	132.999	141.449	C.3	1	UNK0	0.020	
19	   C	134.272	134.513	142.679	C.3	1	UNK0	0.020	
20	   O	136.174	132.100	142.533	O.2	1	UNK0	-0.319	
21	   O	134.174	131.178	142.718	O.co2	1	UNK0	-0.265	
22	   O	134.132	131.616	147.857	O.2	1	UNK0	-0.362	
23	   O	134.596	130.839	145.690	O.2	1	UNK0	-0.362	
24	   H	140.454	130.658	145.659	 H	1	UNK0	0.174	
25	   H	139.691	129.826	146.903	 H	1	UNK0	0.174	
26	   H	136.092	136.111	148.080	 H	1	UNK0	0.174	
27	   H	135.988	135.077	149.399	 H	1	UNK0	0.174	
28	   H	139.382	132.750	144.858	 H	1	UNK0	0.178	
29	   H	136.786	135.086	145.822	 H	1	UNK0	0.178	
30	   H	136.428	132.599	149.016	 H	1	UNK0	0.180	
31	   H	133.933	130.938	148.516	 H	1	UNK0	0.213	
32	   H	135.346	130.648	145.109	 H	1	UNK0	0.213	
@<TRIPOS>BOND
1 1 7 1
2 1 24 1
3 1 25 1
4 2 8 1
5 2 28 1
6 3 10 1
7 3 29 1
8 4 26 1
9 4 27 1
10 5 30 1
11 6 12 1
12 2 7 1
13 6 7 1
14 8 9 1
15 8 15 1
16 3 9 1
17 9 11 1
18 4 10 1
19 5 10 1
20 5 11 1
21 6 11 1
22 11 14 1
23 12 13 1
24 13 14 1
25 14 22 2
26 14 23 2
27 15 20 2
28 16 17 1
29 16 21 2
30 17 18 1
31 17 19 1
32 16 20 2
33 22 31 1
34 23 32 1
@<TRIPOS>SUBSTRUCTURE
1	UNK0	1	GROUP	1 ****	UNK
