# created with PyMOL 2.3.4
@<TRIPOS>MOLECULE
ligand_out_0001
32 34 1                 
SMALL
USER_CHARGES
@<TRIPOS>ATOM
1	   N	135.446	132.595	146.994	N.3	1	UNK0	-0.235	
2	   N	136.754	134.331	146.093	N.3	1	UNK0	-0.218	
3	   N	136.215	136.090	143.621	N.3	1	UNK0	-0.216	
4	   N	134.269	136.872	142.527	N.3	1	UNK0	-0.235	
5	   N	134.587	134.597	143.092	N.3	1	UNK0	-0.191	
6	   N	135.453	133.000	144.688	N.3	1	UNK0	-0.183	
7	   N	139.757	130.894	146.825	N.pl3	1	UNK0	-0.337	
8	   C	135.863	133.279	145.965	C.3	1	UNK0	0.672	
9	   C	137.635	134.631	144.968	C.3	1	UNK0	0.151	
10	   C	136.885	134.772	143.658	C.3	1	UNK0	0.180	
11	   C	134.980	135.912	143.049	C.3	1	UNK0	0.670	
12	   C	135.746	133.779	143.485	C.3	1	UNK0	0.217	
13	   C	134.682	131.835	144.219	C.3	1	UNK0	0.150	
14	   C	135.347	131.449	142.876	C.3	1	UNK0	0.093	
15	   C	136.049	132.743	142.390	C.3	1	UNK0	0.209	
16	   C	138.660	133.503	144.829	C.2	1	UNK0	0.208	
17	   C	140.002	132.104	146.284	C.2	1	UNK0	0.362	
18	   C	140.845	129.925	146.976	C.3	1	UNK0	0.154	
19	   C	138.403	130.548	147.264	C.3	1	UNK0	0.154	
20	   O	139.001	132.995	146.145	O.2	1	UNK0	-0.302	
21	   O	141.125	132.390	145.920	O.co2	1	UNK0	-0.238	
22	   O	135.509	133.163	141.135	O.2	1	UNK0	-0.362	
23	   O	137.459	132.532	142.282	O.2	1	UNK0	-0.362	
24	   H	135.760	132.818	147.884	 H	1	UNK0	0.174	
25	   H	134.817	131.867	146.868	 H	1	UNK0	0.174	
26	   H	134.607	137.781	142.529	 H	1	UNK0	0.174	
27	   H	133.402	136.677	142.137	 H	1	UNK0	0.174	
28	   H	136.791	134.856	146.908	 H	1	UNK0	0.178	
29	   H	136.582	136.928	143.944	 H	1	UNK0	0.178	
30	   H	133.697	134.264	142.894	 H	1	UNK0	0.180	
31	   H	135.524	132.390	140.553	 H	1	UNK0	0.213	
32	   H	137.886	133.240	142.782	 H	1	UNK0	0.213	
@<TRIPOS>BOND
1 1 8 1
2 1 24 1
3 1 25 1
4 2 9 1
5 2 28 1
6 3 11 1
7 3 29 1
8 4 26 1
9 4 27 1
10 5 30 1
11 6 13 1
12 7 18 1
13 7 19 1
14 2 8 1
15 6 8 1
16 9 10 1
17 9 16 1
18 3 10 1
19 10 12 1
20 4 11 1
21 5 11 1
22 5 12 1
23 6 12 1
24 12 15 1
25 13 14 1
26 14 15 1
27 15 22 2
28 15 23 2
29 16 20 2
30 7 17 1
31 17 21 2
32 17 20 2
33 22 31 1
34 23 32 1
@<TRIPOS>SUBSTRUCTURE
1	UNK0	1	GROUP	1 ****	UNK
