# created with PyMOL 2.3.4
@<TRIPOS>MOLECULE
ligand_out_0001
34 37 1                 
SMALL
USER_CHARGES
@<TRIPOS>ATOM
1	   N	134.901	131.998	146.742	N.3	1	UNK0	-0.235	
2	   N	136.370	133.744	146.168	N.3	1	UNK0	-0.218	
3	   N	136.165	135.779	143.862	N.3	1	UNK0	-0.216	
4	   N	134.377	136.775	142.676	N.3	1	UNK0	-0.235	
5	   N	134.535	134.440	143.017	N.3	1	UNK0	-0.191	
6	   N	135.163	132.640	144.507	N.3	1	UNK0	-0.183	
7	   N	140.093	130.887	147.124	N.pl3	1	UNK0	-0.328	
8	   C	135.451	132.762	145.840	C.3	1	UNK0	0.672	
9	   C	137.374	134.112	145.174	C.3	1	UNK0	0.151	
10	   C	136.768	134.429	143.821	C.3	1	UNK0	0.180	
11	   C	134.988	135.728	143.156	C.3	1	UNK0	0.670	
12	   C	135.611	133.524	143.429	C.3	1	UNK0	0.217	
13	   C	134.393	131.573	143.841	C.3	1	UNK0	0.150	
14	   C	135.175	131.295	142.534	C.3	1	UNK0	0.093	
15	   C	135.979	132.591	142.263	C.3	1	UNK0	0.209	
16	   C	138.357	132.950	145.012	C.2	1	UNK0	0.208	
17	   C	140.159	131.925	146.267	C.2	1	UNK0	0.362	
18	   C	138.990	130.617	148.063	C.3	1	UNK0	0.128	
19	   C	141.112	129.839	147.281	C.3	1	UNK0	0.128	
20	   C	139.062	129.091	148.331	C.3	1	UNK0	0.022	
21	   C	140.596	128.854	148.352	C.3	1	UNK0	0.022	
22	   O	139.157	132.822	146.217	O.2	1	UNK0	-0.302	
23	   O	141.124	132.051	145.540	O.co2	1	UNK0	-0.238	
24	   O	135.589	133.167	141.015	O.2	1	UNK0	-0.362	
25	   O	137.382	132.317	142.270	O.2	1	UNK0	-0.362	
26	   H	135.132	132.109	147.678	 H	1	UNK0	0.174	
27	   H	134.258	131.321	146.478	 H	1	UNK0	0.174	
28	   H	134.752	137.659	142.811	 H	1	UNK0	0.174	
29	   H	133.547	136.669	142.186	 H	1	UNK0	0.174	
30	   H	136.346	134.178	147.035	 H	1	UNK0	0.178	
31	   H	136.532	136.557	144.309	 H	1	UNK0	0.178	
32	   H	133.657	134.178	142.698	 H	1	UNK0	0.180	
33	   H	134.687	133.496	141.128	 H	1	UNK0	0.213	
34	   H	137.661	132.265	141.345	 H	1	UNK0	0.213	
@<TRIPOS>BOND
1 1 8 1
2 1 26 1
3 1 27 1
4 2 9 1
5 2 30 1
6 3 11 1
7 3 31 1
8 4 28 1
9 4 29 1
10 5 32 1
11 6 13 1
12 7 18 1
13 7 19 1
14 2 8 1
15 6 8 1
16 9 10 1
17 9 16 1
18 3 10 1
19 10 12 1
20 4 11 1
21 5 11 1
22 5 12 1
23 6 12 1
24 12 15 1
25 13 14 1
26 14 15 1
27 15 24 2
28 15 25 2
29 16 22 2
30 7 17 1
31 17 23 2
32 18 20 1
33 19 21 1
34 20 21 1
35 17 22 2
36 24 33 1
37 25 34 1
@<TRIPOS>SUBSTRUCTURE
1	UNK0	1	GROUP	1 ****	UNK
