# created with PyMOL 2.3.4
@<TRIPOS>MOLECULE
ligand_out_0001
36 38 1                 
SMALL
USER_CHARGES
@<TRIPOS>ATOM
1	   N	134.208	131.979	149.341	N.3	1	UNK0	-0.235	
2	   N	135.189	129.865	149.017	N.3	1	UNK0	-0.218	
3	   N	137.906	129.157	147.749	N.3	1	UNK0	-0.216	
4	   N	139.996	130.250	147.572	N.3	1	UNK0	-0.235	
5	   N	137.955	131.302	147.002	N.3	1	UNK0	-0.191	
6	   N	135.607	131.591	147.506	N.3	1	UNK0	-0.183	
7	   N	132.599	126.140	147.011	N.pl3	1	UNK0	-0.346	
8	   C	134.972	131.182	148.649	C.3	1	UNK0	0.672	
9	   C	135.489	128.895	147.969	C.3	1	UNK0	0.151	
10	   C	136.613	129.346	147.058	C.3	1	UNK0	0.180	
11	   C	138.699	130.238	147.449	C.3	1	UNK0	0.670	
12	   C	136.588	130.831	146.729	C.3	1	UNK0	0.217	
13	   C	135.413	132.850	146.763	C.3	1	UNK0	0.155	
14	   C	135.450	132.427	145.275	C.3	1	UNK0	0.081	
15	   C	136.231	131.088	145.256	C.3	1	UNK0	0.214	
16	   C	134.231	128.672	147.127	C.2	1	UNK0	0.208	
17	   C	132.231	127.349	147.480	C.2	1	UNK0	0.358	
18	   C	136.182	133.480	144.441	C.3	1	UNK0	0.125	
19	   C	135.547	133.571	143.078	C.2	1	UNK0	0.173	
20	   O	133.158	128.188	147.977	O.2	1	UNK0	-0.302	
21	   O	131.063	127.680	147.452	O.co2	1	UNK0	-0.239	
22	   O	137.415	131.215	144.466	O.2	1	UNK0	-0.362	
23	   O	135.405	130.037	144.754	O.2	1	UNK0	-0.362	
24	   O	134.691	134.411	142.860	O.co2	1	UNK0	-0.648	
25	   O	135.890	132.804	142.193	O.co2	1	UNK0	-0.648	
26	   H	133.770	131.655	150.144	 H	1	UNK0	0.174	
27	   H	134.081	132.898	149.057	 H	1	UNK0	0.174	
28	   H	140.461	129.462	147.894	 H	1	UNK0	0.174	
29	   H	140.497	131.049	147.342	 H	1	UNK0	0.174	
30	   H	135.144	129.596	149.948	 H	1	UNK0	0.178	
31	   H	138.150	128.406	148.312	 H	1	UNK0	0.178	
32	   H	138.278	132.210	146.885	 H	1	UNK0	0.180	
33	   H	133.532	125.875	147.034	 H	1	UNK0	0.161	
34	   H	131.932	125.535	146.653	 H	1	UNK0	0.161	
35	   H	137.433	130.458	143.864	 H	1	UNK0	0.213	
36	   H	135.617	129.939	143.815	 H	1	UNK0	0.213	
@<TRIPOS>BOND
1 1 8 1
2 1 26 1
3 1 27 1
4 2 9 1
5 2 30 1
6 3 11 1
7 3 31 1
8 4 28 1
9 4 29 1
10 5 32 1
11 6 13 1
12 7 33 1
13 7 34 1
14 2 8 1
15 6 8 1
16 9 10 1
17 9 16 1
18 3 10 1
19 10 12 1
20 4 11 1
21 5 11 1
22 5 12 1
23 6 12 1
24 12 15 1
25 13 14 1
26 14 15 1
27 14 18 1
28 15 22 2
29 15 23 2
30 16 20 2
31 7 17 1
32 17 21 2
33 18 19 1
34 19 24 2
35 19 25 2
36 17 20 2
37 22 35 1
38 23 36 1
@<TRIPOS>SUBSTRUCTURE
1	UNK0	1	GROUP	1 ****	UNK
