# created with PyMOL 2.3.4
@<TRIPOS>MOLECULE
ligand_out_0001
33 35 1                 
SMALL
USER_CHARGES
@<TRIPOS>ATOM
1	   N	131.674	132.170	134.976	N.3	1	UNK0	-0.235	
2	   N	131.249	134.348	135.754	N.3	1	UNK0	-0.218	
3	   N	131.119	137.005	134.192	N.3	1	UNK0	-0.216	
4	   N	130.515	137.603	131.984	N.3	1	UNK0	-0.235	
5	   N	132.032	135.852	132.460	N.3	1	UNK0	-0.191	
6	   N	132.650	134.017	133.916	N.3	1	UNK0	-0.179	
7	   N	133.547	136.057	139.476	N.pl3	1	UNK0	-0.346	
8	   C	131.851	133.458	134.883	C.3	1	UNK0	0.672	
9	   C	131.923	135.614	136.029	C.3	1	UNK0	0.151	
10	   C	132.316	136.350	134.763	C.3	1	UNK0	0.180	
11	   C	131.181	136.865	132.826	C.3	1	UNK0	0.670	
12	   C	132.805	135.447	133.644	C.3	1	UNK0	0.217	
13	   C	133.559	133.315	132.998	C.3	1	UNK0	0.106	
14	   C	132.803	132.889	131.738	C.3	1	UNK0	0.033	
15	   C	134.678	134.312	132.631	C.3	1	UNK0	0.098	
16	   C	134.313	135.626	133.376	C.3	1	UNK0	0.210	
17	   C	133.185	135.334	136.848	C.2	1	UNK0	0.208	
18	   C	133.014	134.847	139.216	C.2	1	UNK0	0.358	
19	   O	132.863	134.437	137.943	O.2	1	UNK0	-0.302	
20	   O	132.669	134.126	140.131	O.co2	1	UNK0	-0.239	
21	   O	134.558	136.764	132.547	O.2	1	UNK0	-0.362	
22	   O	135.034	135.728	134.606	O.2	1	UNK0	-0.362	
23	   H	131.105	131.807	135.673	 H	1	UNK0	0.174	
24	   H	132.107	131.574	134.345	 H	1	UNK0	0.174	
25	   H	129.929	138.304	132.310	 H	1	UNK0	0.174	
26	   H	130.604	137.451	131.030	 H	1	UNK0	0.174	
27	   H	130.399	134.136	136.172	 H	1	UNK0	0.178	
28	   H	130.418	137.453	134.691	 H	1	UNK0	0.178	
29	   H	132.111	135.471	131.571	 H	1	UNK0	0.180	
30	   H	133.824	136.632	138.745	 H	1	UNK0	0.161	
31	   H	133.657	136.351	140.394	 H	1	UNK0	0.161	
32	   H	135.325	137.220	132.919	 H	1	UNK0	0.213	
33	   H	135.753	135.084	134.564	 H	1	UNK0	0.213	
@<TRIPOS>BOND
1 1 8 1
2 1 23 1
3 1 24 1
4 2 9 1
5 2 27 1
6 3 11 1
7 3 28 1
8 4 25 1
9 4 26 1
10 5 29 1
11 6 13 1
12 7 30 1
13 7 31 1
14 2 8 1
15 6 8 1
16 9 10 1
17 9 17 1
18 3 10 1
19 10 12 1
20 4 11 1
21 5 11 1
22 5 12 1
23 6 12 1
24 12 16 1
25 13 14 1
26 13 15 1
27 15 16 1
28 16 21 2
29 16 22 2
30 17 19 2
31 7 18 1
32 18 20 2
33 18 19 2
34 21 32 1
35 22 33 1
@<TRIPOS>SUBSTRUCTURE
1	UNK0	1	GROUP	1 ****	UNK
