MODEL 1
REMARK VINA RESULT:      -7.1      0.000      0.000
REMARK  5 active torsions:
REMARK  status: ('A' for Active; 'I' for Inactive)
REMARK    1  A    between atoms: C_6  and  C_7 
REMARK    2  A    between atoms: C_7  and  O_8 
REMARK    3  A    between atoms: O_8  and  C_9 
REMARK       I    between atoms: C_9  and  N_10 
REMARK    4  A    between atoms: C_24  and  O_25 
REMARK    5  A    between atoms: C_24  and  O_26 
ROOT
ATOM      1  N           0     131.674 132.170 134.976  0.00  0.00    -0.235 N 
ATOM      2  H           0     131.105 131.807 135.673  0.00  0.00     0.174 HD
ATOM      3  H           0     132.107 131.574 134.345  0.00  0.00     0.174 HD
ATOM      4  C           0     131.851 133.458 134.883  0.00  0.00     0.672 C 
ATOM      5  N           0     131.249 134.348 135.754  0.00  0.00    -0.218 N 
ATOM      6  C           0     131.923 135.614 136.029  0.00  0.00     0.151 C 
ATOM      7  C           0     132.316 136.350 134.763  0.00  0.00     0.180 C 
ATOM      8  N           0     131.119 137.005 134.192  0.00  0.00    -0.216 N 
ATOM      9  C           0     131.181 136.865 132.826  0.00  0.00     0.670 C 
ATOM     10  N           0     130.515 137.603 131.984  0.00  0.00    -0.235 N 
ATOM     11  H           0     129.929 138.304 132.310  0.00  0.00     0.174 HD
ATOM     12  H           0     130.604 137.451 131.030  0.00  0.00     0.174 HD
ATOM     13  C           0     132.805 135.447 133.644  0.00  0.00     0.217 C 
ATOM     14  N           0     132.032 135.852 132.460  0.00  0.00    -0.191 N 
ATOM     15  N           0     132.650 134.017 133.916  0.00  0.00    -0.179 N 
ATOM     16  C           0     133.559 133.315 132.998  0.00  0.00     0.106 C 
ATOM     17  C           0     132.803 132.889 131.738  0.00  0.00     0.033 C 
ATOM     18  C           0     134.678 134.312 132.631  0.00  0.00     0.098 C 
ATOM     19  C           0     134.313 135.626 133.376  0.00  0.00     0.210 C 
ATOM     20  H           0     130.399 134.136 136.172  0.00  0.00     0.178 HD
ATOM     21  H           0     130.418 137.453 134.691  0.00  0.00     0.178 HD
ATOM     22  H           0     132.111 135.471 131.571  0.00  0.00     0.180 HD
ENDROOT
BRANCH   6  23
ATOM     23  C           0     133.185 135.334 136.848  0.00  0.00     0.208 C 
BRANCH  23  24
ATOM     24  O           0     132.863 134.437 137.943  0.00  0.00    -0.302 OA
BRANCH  24  25
ATOM     25  C           0     133.014 134.847 139.216  0.00  0.00     0.358 C 
ATOM     26  N           0     133.547 136.057 139.476  0.00  0.00    -0.346 N 
ATOM     27  H           0     133.824 136.632 138.745  0.00  0.00     0.161 HD
ATOM     28  H           0     133.657 136.351 140.394  0.00  0.00     0.161 HD
ATOM     29  O           0     132.669 134.126 140.131  0.00  0.00    -0.239 OA
ENDBRANCH  24  25
ENDBRANCH  23  24
ENDBRANCH   6  23
BRANCH  19  30
ATOM     30  O           0     134.558 136.764 132.547  0.00  0.00    -0.362 OA
ATOM     31  H           0     135.325 137.220 132.919  0.00  0.00     0.213 HD
ENDBRANCH  19  30
BRANCH  19  32
ATOM     32  O           0     135.034 135.728 134.606  0.00  0.00    -0.362 OA
ATOM     33  H           0     135.753 135.084 134.564  0.00  0.00     0.213 HD
ENDBRANCH  19  32
TORSDOF 5
ENDMDL
MODEL 2
REMARK VINA RESULT:      -7.0      9.628     13.580
REMARK  5 active torsions:
REMARK  status: ('A' for Active; 'I' for Inactive)
REMARK    1  A    between atoms: C_6  and  C_7 
REMARK    2  A    between atoms: C_7  and  O_8 
REMARK    3  A    between atoms: O_8  and  C_9 
REMARK       I    between atoms: C_9  and  N_10 
REMARK    4  A    between atoms: C_24  and  O_25 
REMARK    5  A    between atoms: C_24  and  O_26 
ROOT
ATOM      1  N           0     135.992 134.498 146.729  0.00  0.00    -0.235 N 
ATOM      2  H           0     135.426 135.099 146.220  0.00  0.00     0.174 HD
ATOM      3  H           0     136.604 134.855 147.393  0.00  0.00     0.174 HD
ATOM      4  C           0     135.928 133.212 146.527  0.00  0.00     0.672 C 
ATOM      5  N           0     135.067 132.656 145.597  0.00  0.00    -0.218 N 
ATOM      6  C           0     135.449 131.396 144.966  0.00  0.00     0.151 C 
ATOM      7  C           0     135.838 130.334 145.975  0.00  0.00     0.180 C 
ATOM      8  N           0     134.614 129.767 146.581  0.00  0.00    -0.216 N 
ATOM      9  C           0     134.861 129.578 147.919  0.00  0.00     0.670 C 
ATOM     10  N           0     134.169 128.783 148.686  0.00  0.00    -0.235 N 
ATOM     11  H           0     133.425 128.280 148.319  0.00  0.00     0.174 HD
ATOM     12  H           0     134.398 128.695 149.624  0.00  0.00     0.174 HD
ATOM     13  C           0     136.621 130.864 147.165  0.00  0.00     0.217 C 
ATOM     14  N           0     135.929 130.328 148.347  0.00  0.00    -0.191 N 
ATOM     15  N           0     136.712 132.324 147.220  0.00  0.00    -0.179 N 
ATOM     16  C           0     137.841 132.639 148.108  0.00  0.00     0.106 C 
ATOM     17  C           0     137.335 132.880 149.532  0.00  0.00     0.033 C 
ATOM     18  C           0     138.783 131.416 148.082  0.00  0.00     0.098 C 
ATOM     19  C           0     138.087 130.387 147.150  0.00  0.00     0.210 C 
ATOM     20  H           0     134.231 133.093 145.370  0.00  0.00     0.178 HD
ATOM     21  H           0     133.785 129.566 146.117  0.00  0.00     0.178 HD
ATOM     22  H           0     136.183 130.476 149.271  0.00  0.00     0.180 HD
ENDROOT
BRANCH   6  23
ATOM     23  C           0     136.635 131.649 144.034  0.00  0.00     0.208 C 
BRANCH  23  24
ATOM     24  O           0     136.233 132.553 142.971  0.00  0.00    -0.302 OA
BRANCH  24  25
ATOM     25  C           0     136.753 133.793 142.908  0.00  0.00     0.358 C 
ATOM     26  N           0     137.864 134.021 142.179  0.00  0.00    -0.346 N 
ATOM     27  H           0     138.289 133.292 141.702  0.00  0.00     0.161 HD
ATOM     28  H           0     138.239 134.915 142.134  0.00  0.00     0.161 HD
ATOM     29  O           0     136.221 134.706 143.507  0.00  0.00    -0.239 OA
ENDBRANCH  24  25
ENDBRANCH  23  24
ENDBRANCH   6  23
BRANCH  19  30
ATOM     30  O           0     138.204 129.064 147.678  0.00  0.00    -0.362 OA
ATOM     31  H           0     139.149 128.881 147.764  0.00  0.00     0.213 HD
ENDBRANCH  19  30
BRANCH  19  32
ATOM     32  O           0     138.624 130.455 145.827  0.00  0.00    -0.362 OA
ATOM     33  H           0     138.236 131.235 145.408  0.00  0.00     0.213 HD
ENDBRANCH  19  32
TORSDOF 5
ENDMDL
MODEL 3
REMARK VINA RESULT:      -6.9      8.328     13.031
REMARK  5 active torsions:
REMARK  status: ('A' for Active; 'I' for Inactive)
REMARK    1  A    between atoms: C_6  and  C_7 
REMARK    2  A    between atoms: C_7  and  O_8 
REMARK    3  A    between atoms: O_8  and  C_9 
REMARK       I    between atoms: C_9  and  N_10 
REMARK    4  A    between atoms: C_24  and  O_25 
REMARK    5  A    between atoms: C_24  and  O_26 
ROOT
ATOM      1  N           0     139.485 130.674 145.788  0.00  0.00    -0.235 N 
ATOM      2  H           0     140.181 130.823 145.128  0.00  0.00     0.174 HD
ATOM      3  H           0     139.577 129.957 146.435  0.00  0.00     0.174 HD
ATOM      4  C           0     138.431 131.440 145.809  0.00  0.00     0.672 C 
ATOM      5  N           0     138.259 132.479 144.912  0.00  0.00    -0.218 N 
ATOM      6  C           0     136.897 132.866 144.552  0.00  0.00     0.151 C 
ATOM      7  C           0     136.023 133.111 145.766  0.00  0.00     0.180 C 
ATOM      8  N           0     136.347 134.436 146.339  0.00  0.00    -0.216 N 
ATOM      9  C           0     136.326 134.313 147.707  0.00  0.00     0.670 C 
ATOM     10  N           0     136.208 135.317 148.530  0.00  0.00    -0.235 N 
ATOM     11  H           0     136.128 136.220 148.186  0.00  0.00     0.174 HD
ATOM     12  H           0     136.200 135.160 149.487  0.00  0.00     0.174 HD
ATOM     13  C           0     136.268 132.148 146.915  0.00  0.00     0.217 C 
ATOM     14  N           0     136.444 133.002 148.099  0.00  0.00    -0.191 N 
ATOM     15  N           0     137.420 131.265 146.722  0.00  0.00    -0.179 N 
ATOM     16  C           0     137.242 130.136 147.646  0.00  0.00     0.106 C 
ATOM     17  C           0     137.998 130.404 148.949  0.00  0.00     0.033 C 
ATOM     18  C           0     135.728 130.026 147.928  0.00  0.00     0.098 C 
ATOM     19  C           0     135.080 131.189 147.127  0.00  0.00     0.210 C 
ATOM     20  H           0     139.024 132.939 144.531  0.00  0.00     0.178 HD
ATOM     21  H           0     136.540 135.245 145.839  0.00  0.00     0.178 HD
ATOM     22  H           0     136.611 132.694 149.003  0.00  0.00     0.180 HD
ENDROOT
BRANCH   6  23
ATOM     23  C           0     136.273 131.751 143.711  0.00  0.00     0.208 C 
BRANCH  23  24
ATOM     24  O           0     134.989 132.193 143.197  0.00  0.00    -0.302 OA
BRANCH  24  25
ATOM     25  C           0     134.933 133.174 142.277  0.00  0.00     0.358 C 
ATOM     26  N           0     135.671 133.086 141.153  0.00  0.00    -0.346 N 
ATOM     27  H           0     136.245 132.316 141.008  0.00  0.00     0.161 HD
ATOM     28  H           0     135.631 133.793 140.490  0.00  0.00     0.161 HD
ATOM     29  O           0     134.216 134.138 142.459  0.00  0.00    -0.239 OA
ENDBRANCH  24  25
ENDBRANCH  23  24
ENDBRANCH   6  23
BRANCH  19  30
ATOM     30  O           0     134.044 131.813 147.889  0.00  0.00    -0.362 OA
ATOM     31  H           0     134.236 132.760 147.897  0.00  0.00     0.213 HD
ENDBRANCH  19  30
BRANCH  19  32
ATOM     32  O           0     134.579 130.724 145.873  0.00  0.00    -0.362 OA
ATOM     33  H           0     134.538 129.759 145.928  0.00  0.00     0.213 HD
ENDBRANCH  19  32
TORSDOF 5
ENDMDL
MODEL 4
REMARK VINA RESULT:      -6.8      2.227      3.216
REMARK  5 active torsions:
REMARK  status: ('A' for Active; 'I' for Inactive)
REMARK    1  A    between atoms: C_6  and  C_7 
REMARK    2  A    between atoms: C_7  and  O_8 
REMARK    3  A    between atoms: O_8  and  C_9 
REMARK       I    between atoms: C_9  and  N_10 
REMARK    4  A    between atoms: C_24  and  O_25 
REMARK    5  A    between atoms: C_24  and  O_26 
ROOT
ATOM      1  N           0     133.906 132.380 132.755  0.00  0.00    -0.235 N 
ATOM      2  H           0     133.772 131.564 132.248  0.00  0.00     0.174 HD
ATOM      3  H           0     134.801 132.737 132.870  0.00  0.00     0.174 HD
ATOM      4  C           0     132.885 133.000 133.275  0.00  0.00     0.672 C 
ATOM      5  N           0     131.590 132.534 133.131  0.00  0.00    -0.218 N 
ATOM      6  C           0     130.622 132.840 134.182  0.00  0.00     0.151 C 
ATOM      7  C           0     130.581 134.317 134.523  0.00  0.00     0.180 C 
ATOM      8  N           0     129.815 135.034 133.480  0.00  0.00    -0.216 N 
ATOM      9  C           0     130.458 136.224 133.239  0.00  0.00     0.670 C 
ATOM     10  N           0     129.900 137.254 132.667  0.00  0.00    -0.235 N 
ATOM     11  H           0     128.974 137.208 132.381  0.00  0.00     0.174 HD
ATOM     12  H           0     130.411 138.066 132.526  0.00  0.00     0.174 HD
ATOM     13  C           0     131.940 134.997 134.509  0.00  0.00     0.217 C 
ATOM     14  N           0     131.759 136.195 133.676  0.00  0.00    -0.191 N 
ATOM     15  N           0     133.026 134.156 134.003  0.00  0.00    -0.179 N 
ATOM     16  C           0     134.279 134.759 134.479  0.00  0.00     0.106 C 
ATOM     17  C           0     134.852 135.690 133.408  0.00  0.00     0.033 C 
ATOM     18  C           0     133.930 135.567 135.748  0.00  0.00     0.098 C 
ATOM     19  C           0     132.395 135.402 135.926  0.00  0.00     0.210 C 
ATOM     20  H           0     131.332 132.017 132.352  0.00  0.00     0.178 HD
ATOM     21  H           0     129.007 134.721 133.046  0.00  0.00     0.178 HD
ATOM     22  H           0     132.441 136.854 133.472  0.00  0.00     0.180 HD
ENDROOT
BRANCH   6  23
ATOM     23  C           0     130.995 132.053 135.440  0.00  0.00     0.208 C 
BRANCH  23  24
ATOM     24  O           0     130.169 132.495 136.550  0.00  0.00    -0.302 OA
BRANCH  24  25
ATOM     25  C           0     130.287 131.906 137.754  0.00  0.00     0.358 C 
ATOM     26  N           0     130.880 132.563 138.771  0.00  0.00    -0.346 N 
ATOM     27  H           0     131.222 133.460 138.634  0.00  0.00     0.161 HD
ATOM     28  H           0     130.965 132.138 139.639  0.00  0.00     0.161 HD
ATOM     29  O           0     129.859 130.782 137.925  0.00  0.00    -0.239 OA
ENDBRANCH  24  25
ENDBRANCH  23  24
ENDBRANCH   6  23
BRANCH  19  30
ATOM     30  O           0     131.796 136.636 136.327  0.00  0.00    -0.362 OA
ATOM     31  H           0     131.757 137.196 135.540  0.00  0.00     0.213 HD
ENDBRANCH  19  30
BRANCH  19  32
ATOM     32  O           0     132.102 134.365 136.864  0.00  0.00    -0.362 OA
ATOM     33  H           0     132.843 134.332 137.485  0.00  0.00     0.213 HD
ENDBRANCH  19  32
TORSDOF 5
ENDMDL
MODEL 5
REMARK VINA RESULT:      -6.7     10.704     13.559
REMARK  5 active torsions:
REMARK  status: ('A' for Active; 'I' for Inactive)
REMARK    1  A    between atoms: C_6  and  C_7 
REMARK    2  A    between atoms: C_7  and  O_8 
REMARK    3  A    between atoms: O_8  and  C_9 
REMARK       I    between atoms: C_9  and  N_10 
REMARK    4  A    between atoms: C_24  and  O_25 
REMARK    5  A    between atoms: C_24  and  O_26 
ROOT
ATOM      1  N           0     138.660 129.348 147.952  0.00  0.00    -0.235 N 
ATOM      2  H           0     138.693 128.385 148.069  0.00  0.00     0.174 HD
ATOM      3  H           0     139.367 129.904 148.314  0.00  0.00     0.174 HD
ATOM      4  C           0     137.669 129.892 147.304  0.00  0.00     0.672 C 
ATOM      5  N           0     136.640 129.140 146.765  0.00  0.00    -0.218 N 
ATOM      6  C           0     135.323 129.757 146.638  0.00  0.00     0.151 C 
ATOM      7  C           0     135.374 131.100 145.935  0.00  0.00     0.180 C 
ATOM      8  N           0     135.514 130.880 144.479  0.00  0.00    -0.216 N 
ATOM      9  C           0     136.390 131.824 144.000  0.00  0.00     0.670 C 
ATOM     10  N           0     136.480 132.169 142.746  0.00  0.00    -0.235 N 
ATOM     11  H           0     135.906 131.750 142.085  0.00  0.00     0.174 HD
ATOM     12  H           0     137.121 132.843 142.474  0.00  0.00     0.174 HD
ATOM     13  C           0     136.585 131.944 146.295  0.00  0.00     0.217 C 
ATOM     14  N           0     137.158 132.359 145.005  0.00  0.00    -0.191 N 
ATOM     15  N           0     137.577 131.250 147.117  0.00  0.00    -0.179 N 
ATOM     16  C           0     138.405 132.291 147.742  0.00  0.00     0.106 C 
ATOM     17  C           0     139.660 132.537 146.902  0.00  0.00     0.033 C 
ATOM     18  C           0     137.545 133.572 147.794  0.00  0.00     0.098 C 
ATOM     19  C           0     136.198 133.184 147.124  0.00  0.00     0.210 C 
ATOM     20  H           0     136.791 128.226 146.478  0.00  0.00     0.178 HD
ATOM     21  H           0     135.069 130.194 143.958  0.00  0.00     0.178 HD
ATOM     22  H           0     137.941 132.918 144.883  0.00  0.00     0.180 HD
ENDROOT
BRANCH   6  23
ATOM     23  C           0     134.733 129.954 148.036  0.00  0.00     0.208 C 
BRANCH  23  24
ATOM     24  O           0     134.304 128.673 148.566  0.00  0.00    -0.302 OA
BRANCH  24  25
ATOM     25  C           0     133.220 128.060 148.054  0.00  0.00     0.358 C 
ATOM     26  N           0     131.995 128.589 148.243  0.00  0.00    -0.346 N 
ATOM     27  H           0     131.894 129.409 148.751  0.00  0.00     0.161 HD
ATOM     28  H           0     131.214 128.146 147.874  0.00  0.00     0.161 HD
ATOM     29  O           0     133.347 127.032 147.419  0.00  0.00    -0.239 OA
ENDBRANCH  24  25
ENDBRANCH  23  24
ENDBRANCH   6  23
BRANCH  19  30
ATOM     30  O           0     135.727 134.240 146.284  0.00  0.00    -0.362 OA
ATOM     31  H           0     135.426 134.948 146.868  0.00  0.00     0.213 HD
ENDBRANCH  19  30
BRANCH  19  32
ATOM     32  O           0     135.220 132.845 148.110  0.00  0.00    -0.362 OA
ATOM     33  H           0     135.345 133.455 148.849  0.00  0.00     0.213 HD
ENDBRANCH  19  32
TORSDOF 5
ENDMDL
MODEL 6
REMARK VINA RESULT:      -6.7     10.413     12.641
REMARK  5 active torsions:
REMARK  status: ('A' for Active; 'I' for Inactive)
REMARK    1  A    between atoms: C_6  and  C_7 
REMARK    2  A    between atoms: C_7  and  O_8 
REMARK    3  A    between atoms: O_8  and  C_9 
REMARK       I    between atoms: C_9  and  N_10 
REMARK    4  A    between atoms: C_24  and  O_25 
REMARK    5  A    between atoms: C_24  and  O_26 
ROOT
ATOM      1  N           0     134.787 132.460 142.858  0.00  0.00    -0.235 N 
ATOM      2  H           0     133.888 132.191 142.615  0.00  0.00     0.174 HD
ATOM      3  H           0     135.387 132.814 142.183  0.00  0.00     0.174 HD
ATOM      4  C           0     135.188 132.352 144.093  0.00  0.00     0.672 C 
ATOM      5  N           0     134.368 131.860 145.093  0.00  0.00    -0.218 N 
ATOM      6  C           0     134.988 131.182 146.228  0.00  0.00     0.151 C 
ATOM      7  C           0     136.099 131.999 146.858  0.00  0.00     0.180 C 
ATOM      8  N           0     135.503 133.061 147.699  0.00  0.00    -0.216 N 
ATOM      9  C           0     136.251 134.200 147.520  0.00  0.00     0.670 C 
ATOM     10  N           0     136.254 135.209 148.345  0.00  0.00    -0.235 N 
ATOM     11  H           0     135.704 135.185 149.144  0.00  0.00     0.174 HD
ATOM     12  H           0     136.806 135.984 148.160  0.00  0.00     0.174 HD
ATOM     13  C           0     136.953 132.762 145.860  0.00  0.00     0.217 C 
ATOM     14  N           0     136.994 134.142 146.367  0.00  0.00    -0.191 N 
ATOM     15  N           0     136.453 132.717 144.485  0.00  0.00    -0.179 N 
ATOM     16  C           0     137.584 133.075 143.616  0.00  0.00     0.106 C 
ATOM     17  C           0     137.548 134.572 143.301  0.00  0.00     0.033 C 
ATOM     18  C           0     138.871 132.730 144.396  0.00  0.00     0.098 C 
ATOM     19  C           0     138.382 132.191 145.769  0.00  0.00     0.210 C 
ATOM     20  H           0     133.405 131.963 145.041  0.00  0.00     0.178 HD
ATOM     21  H           0     134.726 132.969 148.272  0.00  0.00     0.178 HD
ATOM     22  H           0     137.467 134.884 145.960  0.00  0.00     0.180 HD
ENDROOT
BRANCH   6  23
ATOM     23  C           0     135.567 129.849 145.751  0.00  0.00     0.208 C 
BRANCH  23  24
ATOM     24  O           0     135.294 128.820 146.739  0.00  0.00    -0.302 OA
BRANCH  24  25
ATOM     25  C           0     136.104 128.678 147.805  0.00  0.00     0.358 C 
ATOM     26  N           0     137.441 128.649 147.636  0.00  0.00    -0.346 N 
ATOM     27  H           0     137.819 128.729 146.747  0.00  0.00     0.161 HD
ATOM     28  H           0     138.024 128.546 148.405  0.00  0.00     0.161 HD
ATOM     29  O           0     135.630 128.577 148.919  0.00  0.00    -0.239 OA
ENDBRANCH  24  25
ENDBRANCH  23  24
ENDBRANCH   6  23
BRANCH  19  30
ATOM     30  O           0     139.203 132.684 146.829  0.00  0.00    -0.362 OA
ATOM     31  H           0     139.739 131.941 147.136  0.00  0.00     0.213 HD
ENDBRANCH  19  30
BRANCH  19  32
ATOM     32  O           0     138.353 130.762 145.771  0.00  0.00    -0.362 OA
ATOM     33  H           0     137.701 130.496 146.433  0.00  0.00     0.213 HD
ENDBRANCH  19  32
TORSDOF 5
ENDMDL
MODEL 7
REMARK VINA RESULT:      -6.7      9.539     11.958
REMARK  5 active torsions:
REMARK  status: ('A' for Active; 'I' for Inactive)
REMARK    1  A    between atoms: C_6  and  C_7 
REMARK    2  A    between atoms: C_7  and  O_8 
REMARK    3  A    between atoms: O_8  and  C_9 
REMARK       I    between atoms: C_9  and  N_10 
REMARK    4  A    between atoms: C_24  and  O_25 
REMARK    5  A    between atoms: C_24  and  O_26 
ROOT
ATOM      1  N           0     139.093 130.812 145.734  0.00  0.00    -0.235 N 
ATOM      2  H           0     139.349 130.003 146.205  0.00  0.00     0.174 HD
ATOM      3  H           0     139.773 131.370 145.325  0.00  0.00     0.174 HD
ATOM      4  C           0     137.836 131.144 145.645  0.00  0.00     0.672 C 
ATOM      5  N           0     136.831 130.376 146.206  0.00  0.00    -0.218 N 
ATOM      6  C           0     135.606 131.044 146.635  0.00  0.00     0.151 C 
ATOM      7  C           0     135.011 131.922 145.552  0.00  0.00     0.180 C 
ATOM      8  N           0     134.311 131.070 144.566  0.00  0.00    -0.216 N 
ATOM      9  C           0     134.569 131.581 143.317  0.00  0.00     0.670 C 
ATOM     10  N           0     133.851 131.326 142.260  0.00  0.00    -0.235 N 
ATOM     11  H           0     133.080 130.740 142.326  0.00  0.00     0.174 HD
ATOM     12  H           0     134.088 131.720 141.406  0.00  0.00     0.174 HD
ATOM     13  C           0     136.041 132.668 144.720  0.00  0.00     0.217 C 
ATOM     14  N           0     135.674 132.395 143.322  0.00  0.00    -0.191 N 
ATOM     15  N           0     137.426 132.280 144.992  0.00  0.00    -0.179 N 
ATOM     16  C           0     138.273 133.370 144.485  0.00  0.00     0.106 C 
ATOM     17  C           0     138.739 133.052 143.063  0.00  0.00     0.033 C 
ATOM     18  C           0     137.404 134.645 144.483  0.00  0.00     0.098 C 
ATOM     19  C           0     136.007 134.187 144.988  0.00  0.00     0.210 C 
ATOM     20  H           0     136.938 129.418 146.310  0.00  0.00     0.178 HD
ATOM     21  H           0     133.768 130.291 144.766  0.00  0.00     0.178 HD
ATOM     22  H           0     136.132 132.734 142.537  0.00  0.00     0.180 HD
ENDROOT
BRANCH   6  23
ATOM     23  C           0     135.918 131.912 147.856  0.00  0.00     0.208 C 
BRANCH  23  24
ATOM     24  O           0     134.678 132.393 148.439  0.00  0.00    -0.302 OA
BRANCH  24  25
ATOM     25  C           0     133.909 131.563 149.168  0.00  0.00     0.358 C 
ATOM     26  N           0     132.567 131.614 149.054  0.00  0.00    -0.346 N 
ATOM     27  H           0     132.156 132.250 148.448  0.00  0.00     0.161 HD
ATOM     28  H           0     132.014 131.015 149.580  0.00  0.00     0.161 HD
ATOM     29  O           0     134.425 130.767 149.927  0.00  0.00    -0.239 OA
ENDBRANCH  24  25
ENDBRANCH  23  24
ENDBRANCH   6  23
BRANCH  19  30
ATOM     30  O           0     134.966 134.819 144.241  0.00  0.00    -0.362 OA
ATOM     31  H           0     134.885 134.333 143.410  0.00  0.00     0.213 HD
ENDBRANCH  19  30
BRANCH  19  32
ATOM     32  O           0     135.862 134.448 146.385  0.00  0.00    -0.362 OA
ATOM     33  H           0     136.532 135.105 146.618  0.00  0.00     0.213 HD
ENDBRANCH  19  32
TORSDOF 5
ENDMDL
MODEL 8
REMARK VINA RESULT:      -6.7      4.402      6.359
REMARK  5 active torsions:
REMARK  status: ('A' for Active; 'I' for Inactive)
REMARK    1  A    between atoms: C_6  and  C_7 
REMARK    2  A    between atoms: C_7  and  O_8 
REMARK    3  A    between atoms: O_8  and  C_9 
REMARK       I    between atoms: C_9  and  N_10 
REMARK    4  A    between atoms: C_24  and  O_25 
REMARK    5  A    between atoms: C_24  and  O_26 
ROOT
ATOM      1  N           0     128.808 132.540 130.875  0.00  0.00    -0.235 N 
ATOM      2  H           0     127.902 132.281 130.647  0.00  0.00     0.174 HD
ATOM      3  H           0     129.275 133.198 130.335  0.00  0.00     0.174 HD
ATOM      4  C           0     129.397 132.011 131.910  0.00  0.00     0.672 C 
ATOM      5  N           0     128.770 131.075 132.714  0.00  0.00    -0.218 N 
ATOM      6  C           0     129.597 130.090 133.405  0.00  0.00     0.151 C 
ATOM      7  C           0     130.734 130.725 134.181  0.00  0.00     0.180 C 
ATOM      8  N           0     130.204 131.298 135.437  0.00  0.00    -0.216 N 
ATOM      9  C           0     130.841 132.498 135.647  0.00  0.00     0.670 C 
ATOM     10  N           0     130.903 133.101 136.801  0.00  0.00    -0.235 N 
ATOM     11  H           0     130.482 132.704 137.580  0.00  0.00     0.174 HD
ATOM     12  H           0     131.369 133.948 136.881  0.00  0.00     0.174 HD
ATOM     13  C           0     131.377 131.912 133.482  0.00  0.00     0.217 C 
ATOM     14  N           0     131.404 132.981 134.492  0.00  0.00    -0.191 N 
ATOM     15  N           0     130.680 132.343 132.270  0.00  0.00    -0.179 N 
ATOM     16  C           0     131.641 133.143 131.496  0.00  0.00     0.106 C 
ATOM     17  C           0     131.461 134.629 131.813  0.00  0.00     0.033 C 
ATOM     18  C           0     133.051 132.679 131.923  0.00  0.00     0.098 C 
ATOM     19  C           0     132.810 131.595 133.010  0.00  0.00     0.210 C 
ATOM     20  H           0     127.806 131.075 132.816  0.00  0.00     0.178 HD
ATOM     21  H           0     129.530 130.900 136.009  0.00  0.00     0.178 HD
ATOM     22  H           0     131.761 133.874 134.365  0.00  0.00     0.180 HD
ENDROOT
BRANCH   6  23
ATOM     23  C           0     130.183 129.125 132.372  0.00  0.00     0.208 C 
BRANCH  23  24
ATOM     24  O           0     129.991 127.758 132.822  0.00  0.00    -0.302 OA
BRANCH  24  25
ATOM     25  C           0     131.057 126.970 133.054  0.00  0.00     0.358 C 
ATOM     26  N           0     130.909 125.631 133.093  0.00  0.00    -0.346 N 
ATOM     27  H           0     130.034 125.235 132.955  0.00  0.00     0.161 HD
ATOM     28  H           0     131.678 125.063 133.261  0.00  0.00     0.161 HD
ATOM     29  O           0     132.153 127.465 133.228  0.00  0.00    -0.239 OA
ENDBRANCH  24  25
ENDBRANCH  23  24
ENDBRANCH   6  23
BRANCH  19  30
ATOM     30  O           0     133.748 131.733 134.080  0.00  0.00    -0.362 OA
ATOM     31  H           0     133.663 132.637 134.410  0.00  0.00     0.213 HD
ENDBRANCH  19  30
BRANCH  19  32
ATOM     32  O           0     132.875 130.285 132.443  0.00  0.00    -0.362 OA
ATOM     33  H           0     132.696 130.381 131.498  0.00  0.00     0.213 HD
ENDBRANCH  19  32
TORSDOF 5
ENDMDL
MODEL 9
REMARK VINA RESULT:      -6.6      9.433     14.107
REMARK  5 active torsions:
REMARK  status: ('A' for Active; 'I' for Inactive)
REMARK    1  A    between atoms: C_6  and  C_7 
REMARK    2  A    between atoms: C_7  and  O_8 
REMARK    3  A    between atoms: O_8  and  C_9 
REMARK       I    between atoms: C_9  and  N_10 
REMARK    4  A    between atoms: C_24  and  O_25 
REMARK    5  A    between atoms: C_24  and  O_26 
ROOT
ATOM      1  N           0     138.733 132.568 146.313  0.00  0.00    -0.235 N 
ATOM      2  H           0     138.837 133.365 145.769  0.00  0.00     0.174 HD
ATOM      3  H           0     139.517 132.098 146.638  0.00  0.00     0.174 HD
ATOM      4  C           0     137.542 132.133 146.612  0.00  0.00     0.672 C 
ATOM      5  N           0     136.394 132.773 146.177  0.00  0.00    -0.218 N 
ATOM      6  C           0     135.189 131.975 145.975  0.00  0.00     0.151 C 
ATOM      7  C           0     134.850 131.118 147.179  0.00  0.00     0.180 C 
ATOM      8  N           0     134.227 131.965 148.219  0.00  0.00    -0.216 N 
ATOM      9  C           0     134.717 131.558 149.436  0.00  0.00     0.670 C 
ATOM     10  N           0     134.144 131.816 150.578  0.00  0.00    -0.235 N 
ATOM     11  H           0     133.320 132.326 150.604  0.00  0.00     0.174 HD
ATOM     12  H           0     134.544 131.498 151.403  0.00  0.00     0.174 HD
ATOM     13  C           0     136.060 130.518 147.876  0.00  0.00     0.217 C 
ATOM     14  N           0     135.882 130.845 149.299  0.00  0.00    -0.191 N 
ATOM     15  N           0     137.344 131.009 147.375  0.00  0.00    -0.179 N 
ATOM     16  C           0     138.359 130.031 147.796  0.00  0.00     0.106 C 
ATOM     17  C           0     139.000 130.477 149.112  0.00  0.00     0.033 C 
ATOM     18  C           0     137.627 128.687 147.995  0.00  0.00     0.098 C 
ATOM     19  C           0     136.133 128.989 147.691  0.00  0.00     0.210 C 
ATOM     20  H           0     136.392 133.729 146.011  0.00  0.00     0.178 HD
ATOM     21  H           0     133.588 132.680 148.068  0.00  0.00     0.178 HD
ATOM     22  H           0     136.483 130.598 150.019  0.00  0.00     0.180 HD
ENDROOT
BRANCH   6  23
ATOM     23  C           0     135.397 131.063 144.764  0.00  0.00     0.208 C 
BRANCH  23  24
ATOM     24  O           0     135.241 131.835 143.544  0.00  0.00    -0.302 OA
BRANCH  24  25
ATOM     25  C           0     136.327 132.264 142.875  0.00  0.00     0.358 C 
ATOM     26  N           0     136.182 132.983 141.745  0.00  0.00    -0.346 N 
ATOM     27  H           0     135.294 133.190 141.412  0.00  0.00     0.161 HD
ATOM     28  H           0     136.965 133.292 141.262  0.00  0.00     0.161 HD
ATOM     29  O           0     137.439 132.004 143.291  0.00  0.00    -0.239 OA
ENDBRANCH  24  25
ENDBRANCH  23  24
ENDBRANCH   6  23
BRANCH  19  30
ATOM     30  O           0     135.280 128.316 148.620  0.00  0.00    -0.362 OA
ATOM     31  H           0     134.605 128.952 148.890  0.00  0.00     0.213 HD
ENDBRANCH  19  30
BRANCH  19  32
ATOM     32  O           0     135.806 128.629 146.347  0.00  0.00    -0.362 OA
ATOM     33  H           0     136.399 127.908 146.099  0.00  0.00     0.213 HD
ENDBRANCH  19  32
TORSDOF 5
ENDMDL
