# created with PyMOL 2.3.4
@<TRIPOS>MOLECULE
ligand_out_0001
32 34 1                 
SMALL
USER_CHARGES
@<TRIPOS>ATOM
1	   N	132.354	132.544	141.664	N.3	1	UNK0	-0.235	
2	   N	133.934	131.468	143.030	N.3	1	UNK0	-0.218	
3	   N	136.556	133.121	145.133	N.3	1	UNK0	-0.215	
4	   N	135.236	135.053	145.004	N.3	1	UNK0	-0.189	
5	   N	136.019	134.305	147.098	N.3	1	UNK0	-0.235	
6	   N	134.298	133.664	142.322	N.3	1	UNK0	-0.178	
7	   N	136.933	128.984	147.037	N.pl3	1	UNK0	-0.346	
8	   C	133.484	132.563	142.313	C.3	1	UNK0	0.672	
9	   C	134.786	131.706	144.193	C.3	1	UNK0	0.152	
10	   C	135.932	132.644	143.895	C.3	1	UNK0	0.185	
11	   C	135.940	134.167	145.805	C.3	1	UNK0	0.670	
12	   C	135.616	133.778	142.962	C.3	1	UNK0	0.224	
13	   C	133.999	135.007	141.795	C.3	1	UNK0	0.150	
14	   C	134.544	135.973	142.872	C.3	1	UNK0	0.087	
15	   C	135.655	135.158	143.598	C.3	1	UNK0	0.202	
16	   C	135.358	130.368	144.668	C.2	1	UNK0	0.208	
17	   C	136.317	130.173	146.886	C.2	1	UNK0	0.358	
18	   O	135.220	130.269	146.111	O.2	1	UNK0	-0.302	
19	   O	136.751	131.158	147.449	O.co2	1	UNK0	-0.239	
20	   O	136.586	133.778	141.912	O.2	1	UNK0	-0.364	
21	   O	136.926	135.802	143.483	O.2	1	UNK0	-0.366	
22	   H	131.801	131.748	141.673	 H	1	UNK0	0.174	
23	   H	132.064	133.329	141.174	 H	1	UNK0	0.174	
24	   H	136.520	133.666	147.626	 H	1	UNK0	0.174	
25	   H	135.574	135.050	147.534	 H	1	UNK0	0.174	
26	   H	133.691	130.566	142.767	 H	1	UNK0	0.178	
27	   H	137.372	132.719	145.470	 H	1	UNK0	0.178	
28	   H	134.500	135.580	145.354	 H	1	UNK0	0.181	
29	   H	136.587	128.198	146.587	 H	1	UNK0	0.161	
30	   H	137.723	128.915	147.595	 H	1	UNK0	0.161	
31	   H	136.871	134.694	141.795	 H	1	UNK0	0.212	
32	   H	136.986	136.434	144.213	 H	1	UNK0	0.212	
@<TRIPOS>BOND
1 1 8 1
2 1 22 1
3 1 23 1
4 2 9 1
5 2 26 1
6 3 11 1
7 3 27 1
8 4 15 1
9 4 28 1
10 5 24 1
11 5 25 1
12 6 13 1
13 7 29 1
14 7 30 1
15 2 8 1
16 6 8 1
17 9 10 1
18 9 16 1
19 3 10 1
20 10 12 1
21 4 11 1
22 5 11 1
23 6 12 1
24 12 15 1
25 12 20 2
26 13 14 1
27 14 15 1
28 15 21 2
29 16 18 2
30 7 17 1
31 17 19 2
32 17 18 2
33 20 31 1
34 21 32 1
@<TRIPOS>SUBSTRUCTURE
1	UNK0	1	GROUP	1 ****	UNK
