MODEL 1
REMARK VINA RESULT:      -7.7      0.000      0.000
REMARK  5 active torsions:
REMARK  status: ('A' for Active; 'I' for Inactive)
REMARK    1  A    between atoms: C_6  and  C_7 
REMARK    2  A    between atoms: C_7  and  O_8 
REMARK    3  A    between atoms: O_8  and  C_9 
REMARK       I    between atoms: C_9  and  N_10 
REMARK    4  A    between atoms: C_19  and  O_20 
REMARK    5  A    between atoms: C_24  and  O_25 
ROOT
ATOM      1  N           0     132.354 132.544 141.664  0.00  0.00    -0.235 N 
ATOM      2  H           0     131.801 131.748 141.673  0.00  0.00     0.174 HD
ATOM      3  H           0     132.064 133.329 141.174  0.00  0.00     0.174 HD
ATOM      4  C           0     133.484 132.563 142.313  0.00  0.00     0.672 C 
ATOM      5  N           0     133.934 131.468 143.030  0.00  0.00    -0.218 N 
ATOM      6  C           0     134.786 131.706 144.193  0.00  0.00     0.152 C 
ATOM      7  C           0     135.932 132.644 143.895  0.00  0.00     0.185 C 
ATOM      8  N           0     136.556 133.121 145.133  0.00  0.00    -0.215 N 
ATOM      9  C           0     135.940 134.167 145.805  0.00  0.00     0.670 C 
ATOM     10  N           0     135.236 135.053 145.004  0.00  0.00    -0.189 N 
ATOM     11  N           0     136.019 134.305 147.098  0.00  0.00    -0.235 N 
ATOM     12  H           0     136.520 133.666 147.626  0.00  0.00     0.174 HD
ATOM     13  H           0     135.574 135.050 147.534  0.00  0.00     0.174 HD
ATOM     14  C           0     135.616 133.778 142.962  0.00  0.00     0.224 C 
ATOM     15  N           0     134.298 133.664 142.322  0.00  0.00    -0.178 N 
ATOM     16  C           0     133.999 135.007 141.795  0.00  0.00     0.150 C 
ATOM     17  C           0     134.544 135.973 142.872  0.00  0.00     0.087 C 
ATOM     18  C           0     135.655 135.158 143.598  0.00  0.00     0.202 C 
ATOM     19  H           0     133.691 130.566 142.767  0.00  0.00     0.178 HD
ATOM     20  H           0     137.372 132.719 145.470  0.00  0.00     0.178 HD
ATOM     21  H           0     134.500 135.580 145.354  0.00  0.00     0.181 HD
ENDROOT
BRANCH   6  22
ATOM     22  C           0     135.358 130.368 144.668  0.00  0.00     0.208 C 
BRANCH  22  23
ATOM     23  O           0     135.220 130.269 146.111  0.00  0.00    -0.302 OA
BRANCH  23  24
ATOM     24  C           0     136.317 130.173 146.886  0.00  0.00     0.358 C 
ATOM     25  N           0     136.933 128.984 147.037  0.00  0.00    -0.346 N 
ATOM     26  H           0     136.587 128.198 146.587  0.00  0.00     0.161 HD
ATOM     27  H           0     137.723 128.915 147.595  0.00  0.00     0.161 HD
ATOM     28  O           0     136.751 131.158 147.449  0.00  0.00    -0.239 OA
ENDBRANCH  23  24
ENDBRANCH  22  23
ENDBRANCH   6  22
BRANCH  14  29
ATOM     29  O           0     136.586 133.778 141.912  0.00  0.00    -0.364 OA
ATOM     30  H           0     136.871 134.694 141.795  0.00  0.00     0.212 HD
ENDBRANCH  14  29
BRANCH  18  31
ATOM     31  O           0     136.926 135.802 143.483  0.00  0.00    -0.366 OA
ATOM     32  H           0     136.986 136.434 144.213  0.00  0.00     0.212 HD
ENDBRANCH  18  31
TORSDOF 5
ENDMDL
MODEL 2
REMARK VINA RESULT:      -7.2      2.223      4.967
REMARK  5 active torsions:
REMARK  status: ('A' for Active; 'I' for Inactive)
REMARK    1  A    between atoms: C_6  and  C_7 
REMARK    2  A    between atoms: C_7  and  O_8 
REMARK    3  A    between atoms: O_8  and  C_9 
REMARK       I    between atoms: C_9  and  N_10 
REMARK    4  A    between atoms: C_19  and  O_20 
REMARK    5  A    between atoms: C_24  and  O_25 
ROOT
ATOM      1  N           0     135.161 136.087 143.277  0.00  0.00    -0.235 N 
ATOM      2  H           0     134.407 136.564 142.899  0.00  0.00     0.174 HD
ATOM      3  H           0     135.838 136.569 143.778  0.00  0.00     0.174 HD
ATOM      4  C           0     135.266 134.798 143.118  0.00  0.00     0.672 C 
ATOM      5  N           0     134.322 134.068 142.416  0.00  0.00    -0.218 N 
ATOM      6  C           0     134.113 132.670 142.785  0.00  0.00     0.152 C 
ATOM      7  C           0     135.406 131.894 142.887  0.00  0.00     0.185 C 
ATOM      8  N           0     135.199 130.615 143.572  0.00  0.00    -0.215 N 
ATOM      9  C           0     135.156 130.626 144.959  0.00  0.00     0.670 C 
ATOM     10  N           0     135.908 131.620 145.567  0.00  0.00    -0.189 N 
ATOM     11  N           0     134.456 129.764 145.641  0.00  0.00    -0.235 N 
ATOM     12  H           0     133.942 129.083 145.181  0.00  0.00     0.174 HD
ATOM     13  H           0     134.450 129.802 146.611  0.00  0.00     0.174 HD
ATOM     14  C           0     136.572 132.647 143.460  0.00  0.00     0.224 C 
ATOM     15  N           0     136.317 134.085 143.630  0.00  0.00    -0.178 N 
ATOM     16  C           0     137.365 134.564 144.548  0.00  0.00     0.150 C 
ATOM     17  C           0     137.533 133.417 145.571  0.00  0.00     0.087 C 
ATOM     18  C           0     137.055 132.146 144.811  0.00  0.00     0.202 C 
ATOM     19  H           0     133.812 134.474 141.697  0.00  0.00     0.178 HD
ATOM     20  H           0     135.096 129.790 143.074  0.00  0.00     0.178 HD
ATOM     21  H           0     135.688 131.954 146.452  0.00  0.00     0.181 HD
ENDROOT
BRANCH   6  22
ATOM     22  C           0     133.224 132.007 141.730  0.00  0.00     0.208 C 
BRANCH  22  23
ATOM     23  O           0     132.094 132.872 141.439  0.00  0.00    -0.302 OA
BRANCH  23  24
ATOM     24  C           0     131.960 133.412 140.212  0.00  0.00     0.358 C 
ATOM     25  N           0     131.077 132.888 139.339  0.00  0.00    -0.346 N 
ATOM     26  H           0     130.539 132.122 139.594  0.00  0.00     0.161 HD
ATOM     27  H           0     130.980 133.276 138.456  0.00  0.00     0.161 HD
ATOM     28  O           0     132.633 134.372 139.894  0.00  0.00    -0.239 OA
ENDBRANCH  23  24
ENDBRANCH  22  23
ENDBRANCH   6  22
BRANCH  14  29
ATOM     29  O           0     137.672 132.527 142.556  0.00  0.00    -0.364 OA
ATOM     30  H           0     138.149 133.367 142.582  0.00  0.00     0.212 HD
ENDBRANCH  14  29
BRANCH  18  31
ATOM     31  O           0     138.101 131.177 144.717  0.00  0.00    -0.366 OA
ATOM     32  H           0     137.840 130.429 145.273  0.00  0.00     0.212 HD
ENDBRANCH  18  31
TORSDOF 5
ENDMDL
MODEL 3
REMARK VINA RESULT:      -6.9      2.376      6.051
REMARK  5 active torsions:
REMARK  status: ('A' for Active; 'I' for Inactive)
REMARK    1  A    between atoms: C_6  and  C_7 
REMARK    2  A    between atoms: C_7  and  O_8 
REMARK    3  A    between atoms: O_8  and  C_9 
REMARK       I    between atoms: C_9  and  N_10 
REMARK    4  A    between atoms: C_19  and  O_20 
REMARK    5  A    between atoms: C_24  and  O_25 
ROOT
ATOM      1  N           0     138.088 132.982 149.281  0.00  0.00    -0.235 N 
ATOM      2  H           0     138.671 133.755 149.340  0.00  0.00     0.174 HD
ATOM      3  H           0     137.616 132.670 150.069  0.00  0.00     0.174 HD
ATOM      4  C           0     137.934 132.365 148.144  0.00  0.00     0.672 C 
ATOM      5  N           0     138.582 132.778 146.993  0.00  0.00    -0.218 N 
ATOM      6  C           0     137.941 132.521 145.706  0.00  0.00     0.152 C 
ATOM      7  C           0     137.478 131.089 145.561  0.00  0.00     0.185 C 
ATOM      8  N           0     136.559 130.946 144.429  0.00  0.00    -0.215 N 
ATOM      9  C           0     135.232 131.302 144.626  0.00  0.00     0.670 C 
ATOM     10  N           0     134.762 131.139 145.921  0.00  0.00    -0.189 N 
ATOM     11  N           0     134.482 131.757 143.663  0.00  0.00    -0.235 N 
ATOM     12  H           0     134.846 131.858 142.770  0.00  0.00     0.174 HD
ATOM     13  H           0     133.558 131.996 143.839  0.00  0.00     0.174 HD
ATOM     14  C           0     136.926 130.456 146.806  0.00  0.00     0.224 C 
ATOM     15  N           0     137.126 131.267 148.016  0.00  0.00    -0.178 N 
ATOM     16  C           0     136.197 130.714 149.017  0.00  0.00     0.150 C 
ATOM     17  C           0     134.927 130.360 148.209  0.00  0.00     0.087 C 
ATOM     18  C           0     135.442 130.138 146.756  0.00  0.00     0.202 C 
ATOM     19  H           0     139.442 133.228 147.039  0.00  0.00     0.178 HD
ATOM     20  H           0     136.867 130.614 143.571  0.00  0.00     0.178 HD
ATOM     21  H           0     134.017 131.662 146.260  0.00  0.00     0.181 HD
ENDROOT
BRANCH   6  22
ATOM     22  C           0     138.937 132.831 144.586  0.00  0.00     0.208 C 
BRANCH  22  23
ATOM     23  O           0     138.236 132.871 143.314  0.00  0.00    -0.302 OA
BRANCH  23  24
ATOM     24  C           0     137.513 133.957 142.979  0.00  0.00     0.358 C 
ATOM     25  N           0     138.095 135.173 142.958  0.00  0.00    -0.346 N 
ATOM     26  H           0     139.034 135.266 143.183  0.00  0.00     0.161 HD
ATOM     27  H           0     137.575 135.955 142.716  0.00  0.00     0.161 HD
ATOM     28  O           0     136.338 133.841 142.695  0.00  0.00    -0.239 OA
ENDBRANCH  23  24
ENDBRANCH  22  23
ENDBRANCH   6  22
BRANCH  14  29
ATOM     29  O           0     137.609 129.219 147.021  0.00  0.00    -0.364 OA
ATOM     30  H           0     136.949 128.518 146.938  0.00  0.00     0.212 HD
ENDBRANCH  14  29
BRANCH  18  31
ATOM     31  O           0     135.159 128.811 146.307  0.00  0.00    -0.366 OA
ATOM     32  H           0     134.718 128.356 147.037  0.00  0.00     0.212 HD
ENDBRANCH  18  31
TORSDOF 5
ENDMDL
MODEL 4
REMARK VINA RESULT:      -6.7      7.709     10.373
REMARK  5 active torsions:
REMARK  status: ('A' for Active; 'I' for Inactive)
REMARK    1  A    between atoms: C_6  and  C_7 
REMARK    2  A    between atoms: C_7  and  O_8 
REMARK    3  A    between atoms: O_8  and  C_9 
REMARK       I    between atoms: C_9  and  N_10 
REMARK    4  A    between atoms: C_19  and  O_20 
REMARK    5  A    between atoms: C_24  and  O_25 
ROOT
ATOM      1  N           0     135.137 135.709 132.434  0.00  0.00    -0.235 N 
ATOM      2  H           0     136.079 135.688 132.667  0.00  0.00     0.174 HD
ATOM      3  H           0     134.869 135.740 131.503  0.00  0.00     0.174 HD
ATOM      4  C           0     134.233 135.693 133.372  0.00  0.00     0.672 C 
ATOM      5  N           0     134.569 135.644 134.713  0.00  0.00    -0.218 N 
ATOM      6  C           0     133.637 135.004 135.638  0.00  0.00     0.152 C 
ATOM      7  C           0     132.218 135.498 135.471  0.00  0.00     0.185 C 
ATOM      8  N           0     131.270 134.618 136.160  0.00  0.00    -0.215 N 
ATOM      9  C           0     130.886 133.452 135.513  0.00  0.00     0.670 C 
ATOM     10  N           0     130.886 133.516 134.127  0.00  0.00    -0.189 N 
ATOM     11  N           0     130.551 132.373 136.162  0.00  0.00    -0.235 N 
ATOM     12  H           0     130.564 132.366 137.132  0.00  0.00     0.174 HD
ATOM     13  H           0     130.288 131.576 135.675  0.00  0.00     0.174 HD
ATOM     14  C           0     131.790 135.777 134.059  0.00  0.00     0.224 C 
ATOM     15  N           0     132.893 135.728 133.089  0.00  0.00    -0.178 N 
ATOM     16  C           0     132.250 135.614 131.768  0.00  0.00     0.150 C 
ATOM     17  C           0     131.042 134.679 132.008  0.00  0.00     0.087 C 
ATOM     18  C           0     130.717 134.845 133.521  0.00  0.00     0.202 C 
ATOM     19  H           0     135.403 136.025 135.032  0.00  0.00     0.178 HD
ATOM     20  H           0     130.924 134.842 137.037  0.00  0.00     0.178 HD
ATOM     21  H           0     130.992 132.720 133.582  0.00  0.00     0.181 HD
ENDROOT
BRANCH   6  22
ATOM     22  C           0     134.090 135.287 137.072  0.00  0.00     0.208 C 
BRANCH  22  23
ATOM     23  O           0     133.265 134.532 137.998  0.00  0.00    -0.302 OA
BRANCH  23  24
ATOM     24  C           0     133.141 134.940 139.276  0.00  0.00     0.358 C 
ATOM     25  N           0     133.557 136.171 139.633  0.00  0.00    -0.346 N 
ATOM     26  H           0     133.944 136.763 138.969  0.00  0.00     0.161 HD
ATOM     27  H           0     133.468 136.465 140.552  0.00  0.00     0.161 HD
ATOM     28  O           0     132.654 134.198 140.105  0.00  0.00    -0.239 OA
ENDBRANCH  23  24
ENDBRANCH  22  23
ENDBRANCH   6  22
BRANCH  14  29
ATOM     29  O           0     131.253 137.101 134.006  0.00  0.00    -0.364 OA
ATOM     30  H           0     131.220 137.352 133.074  0.00  0.00     0.212 HD
ENDBRANCH  14  29
BRANCH  18  31
ATOM     31  O           0     129.389 135.336 133.713  0.00  0.00    -0.366 OA
ATOM     32  H           0     128.789 134.670 133.349  0.00  0.00     0.212 HD
ENDBRANCH  18  31
TORSDOF 5
ENDMDL
MODEL 5
REMARK VINA RESULT:      -6.7      2.233      4.135
REMARK  5 active torsions:
REMARK  status: ('A' for Active; 'I' for Inactive)
REMARK    1  A    between atoms: C_6  and  C_7 
REMARK    2  A    between atoms: C_7  and  O_8 
REMARK    3  A    between atoms: O_8  and  C_9 
REMARK       I    between atoms: C_9  and  N_10 
REMARK    4  A    between atoms: C_19  and  O_20 
REMARK    5  A    between atoms: C_24  and  O_25 
ROOT
ATOM      1  N           0     134.634 130.181 146.229  0.00  0.00    -0.235 N 
ATOM      2  H           0     134.518 130.045 147.182  0.00  0.00     0.174 HD
ATOM      3  H           0     134.253 129.549 145.600  0.00  0.00     0.174 HD
ATOM      4  C           0     135.298 131.214 145.793  0.00  0.00     0.672 C 
ATOM      5  N           0     135.853 132.145 146.653  0.00  0.00    -0.218 N 
ATOM      6  C           0     135.997 133.521 146.186  0.00  0.00     0.152 C 
ATOM      7  C           0     136.650 133.610 144.826  0.00  0.00     0.185 C 
ATOM      8  N           0     136.478 134.945 144.247  0.00  0.00    -0.215 N 
ATOM      9  C           0     135.268 135.230 143.629  0.00  0.00     0.670 C 
ATOM     10  N           0     134.626 134.142 143.056  0.00  0.00    -0.189 N 
ATOM     11  N           0     134.771 136.433 143.591  0.00  0.00    -0.235 N 
ATOM     12  H           0     135.249 137.170 144.004  0.00  0.00     0.174 HD
ATOM     13  H           0     133.922 136.594 143.150  0.00  0.00     0.174 HD
ATOM     14  C           0     136.272 132.531 143.853  0.00  0.00     0.224 C 
ATOM     15  N           0     135.491 131.442 144.456  0.00  0.00    -0.178 N 
ATOM     16  C           0     134.880 130.722 143.325  0.00  0.00     0.150 C 
ATOM     17  C           0     134.497 131.836 142.323  0.00  0.00     0.087 C 
ATOM     18  C           0     135.470 133.006 142.653  0.00  0.00     0.202 C 
ATOM     19  H           0     136.141 131.889 147.545  0.00  0.00     0.178 HD
ATOM     20  H           0     137.185 135.608 144.294  0.00  0.00     0.178 HD
ATOM     21  H           0     133.664 134.130 142.927  0.00  0.00     0.181 HD
ENDROOT
BRANCH   6  22
ATOM     22  C           0     136.850 134.298 147.192  0.00  0.00     0.208 C 
BRANCH  22  23
ATOM     23  O           0     136.054 134.600 148.369  0.00  0.00    -0.302 OA
BRANCH  23  24
ATOM     24  C           0     136.440 135.579 149.209  0.00  0.00     0.358 C 
ATOM     25  N           0     135.533 136.454 149.686  0.00  0.00    -0.346 N 
ATOM     26  H           0     134.602 136.378 149.425  0.00  0.00     0.161 HD
ATOM     27  H           0     135.811 137.159 150.292  0.00  0.00     0.161 HD
ATOM     28  O           0     137.606 135.673 149.537  0.00  0.00    -0.239 OA
ENDBRANCH  23  24
ENDBRANCH  22  23
ENDBRANCH   6  22
BRANCH  14  29
ATOM     29  O           0     137.472 131.946 143.343  0.00  0.00    -0.364 OA
ATOM     30  H           0     138.014 132.670 143.003  0.00  0.00     0.212 HD
ENDBRANCH  14  29
BRANCH  18  31
ATOM     31  O           0     136.279 133.338 141.523  0.00  0.00    -0.366 OA
ATOM     32  H           0     137.167 133.002 141.706  0.00  0.00     0.212 HD
ENDBRANCH  18  31
TORSDOF 5
ENDMDL
MODEL 6
REMARK VINA RESULT:      -6.5      2.358      5.763
REMARK  5 active torsions:
REMARK  status: ('A' for Active; 'I' for Inactive)
REMARK    1  A    between atoms: C_6  and  C_7 
REMARK    2  A    between atoms: C_7  and  O_8 
REMARK    3  A    between atoms: O_8  and  C_9 
REMARK       I    between atoms: C_9  and  N_10 
REMARK    4  A    between atoms: C_19  and  O_20 
REMARK    5  A    between atoms: C_24  and  O_25 
ROOT
ATOM      1  N           0     136.868 134.449 147.457  0.00  0.00    -0.235 N 
ATOM      2  H           0     136.453 135.260 147.126  0.00  0.00     0.174 HD
ATOM      3  H           0     137.435 134.481 148.243  0.00  0.00     0.174 HD
ATOM      4  C           0     136.661 133.315 146.849  0.00  0.00     0.672 C 
ATOM      5  N           0     135.855 133.221 145.728  0.00  0.00    -0.218 N 
ATOM      6  C           0     135.155 131.963 145.482  0.00  0.00     0.152 C 
ATOM      7  C           0     136.065 130.761 145.574  0.00  0.00     0.185 C 
ATOM      8  N           0     135.291 129.520 145.657  0.00  0.00    -0.215 N 
ATOM      9  C           0     134.776 129.162 146.895  0.00  0.00     0.670 C 
ATOM     10  N           0     135.516 129.587 147.988  0.00  0.00    -0.189 N 
ATOM     11  N           0     133.676 128.475 147.020  0.00  0.00    -0.235 N 
ATOM     12  H           0     133.185 128.195 146.232  0.00  0.00     0.174 HD
ATOM     13  H           0     133.346 128.243 147.903  0.00  0.00     0.174 HD
ATOM     14  C           0     137.122 130.827 146.639  0.00  0.00     0.224 C 
ATOM     15  N           0     137.231 132.146 147.278  0.00  0.00    -0.178 N 
ATOM     16  C           0     137.987 131.919 148.523  0.00  0.00     0.150 C 
ATOM     17  C           0     137.468 130.558 149.044  0.00  0.00     0.087 C 
ATOM     18  C           0     136.951 129.827 147.771  0.00  0.00     0.202 C 
ATOM     19  H           0     135.758 133.972 145.121  0.00  0.00     0.178 HD
ATOM     20  H           0     135.143 128.968 144.873  0.00  0.00     0.178 HD
ATOM     21  H           0     135.106 129.719 148.858  0.00  0.00     0.181 HD
ENDROOT
BRANCH   6  22
ATOM     22  C           0     134.538 132.006 144.082  0.00  0.00     0.208 C 
BRANCH  22  23
ATOM     23  O           0     135.500 131.507 143.115  0.00  0.00    -0.302 OA
BRANCH  23  24
ATOM     24  C           0     136.301 132.368 142.456  0.00  0.00     0.358 C 
ATOM     25  N           0     135.853 132.989 141.347  0.00  0.00    -0.346 N 
ATOM     26  H           0     134.954 132.817 141.024  0.00  0.00     0.161 HD
ATOM     27  H           0     136.428 133.608 140.873  0.00  0.00     0.161 HD
ATOM     28  O           0     137.425 132.583 142.862  0.00  0.00    -0.239 OA
ENDBRANCH  23  24
ENDBRANCH  22  23
ENDBRANCH   6  22
BRANCH  14  29
ATOM     29  O           0     138.387 130.555 146.034  0.00  0.00    -0.364 OA
ATOM     30  H           0     139.025 130.453 146.753  0.00  0.00     0.212 HD
ENDBRANCH  14  29
BRANCH  18  31
ATOM     31  O           0     137.654 128.601 147.558  0.00  0.00    -0.366 OA
ATOM     32  H           0     137.511 128.353 146.634  0.00  0.00     0.212 HD
ENDBRANCH  18  31
TORSDOF 5
ENDMDL
MODEL 7
REMARK VINA RESULT:      -6.4      8.841     11.047
REMARK  5 active torsions:
REMARK  status: ('A' for Active; 'I' for Inactive)
REMARK    1  A    between atoms: C_6  and  C_7 
REMARK    2  A    between atoms: C_7  and  O_8 
REMARK    3  A    between atoms: O_8  and  C_9 
REMARK       I    between atoms: C_9  and  N_10 
REMARK    4  A    between atoms: C_19  and  O_20 
REMARK    5  A    between atoms: C_24  and  O_25 
ROOT
ATOM      1  N           0     128.139 134.101 131.786  0.00  0.00    -0.235 N 
ATOM      2  H           0     127.506 133.369 131.847  0.00  0.00     0.174 HD
ATOM      3  H           0     127.903 134.905 131.298  0.00  0.00     0.174 HD
ATOM      4  C           0     129.304 134.007 132.361  0.00  0.00     0.672 C 
ATOM      5  N           0     129.681 132.881 133.073  0.00  0.00    -0.218 N 
ATOM      6  C           0     130.627 133.043 134.174  0.00  0.00     0.152 C 
ATOM      7  C           0     131.845 133.847 133.783  0.00  0.00     0.185 C 
ATOM      8  N           0     132.597 134.272 134.968  0.00  0.00    -0.215 N 
ATOM      9  C           0     132.142 135.389 135.654  0.00  0.00     0.670 C 
ATOM     10  N           0     131.485 136.333 134.879  0.00  0.00    -0.189 N 
ATOM     11  N           0     132.319 135.538 136.936  0.00  0.00    -0.235 N 
ATOM     12  H           0     132.782 134.856 137.446  0.00  0.00     0.174 HD
ATOM     13  H           0     131.986 136.333 137.383  0.00  0.00     0.174 HD
ATOM     14  C           0     131.593 134.994 132.847  0.00  0.00     0.224 C 
ATOM     15  N           0     130.231 135.013 132.295  0.00  0.00    -0.178 N 
ATOM     16  C           0     130.044 136.372 131.757  0.00  0.00     0.150 C 
ATOM     17  C           0     130.759 137.290 132.776  0.00  0.00     0.087 C 
ATOM     18  C           0     131.821 136.371 133.448  0.00  0.00     0.202 C 
ATOM     19  H           0     129.326 132.007 132.846  0.00  0.00     0.178 HD
ATOM     20  H           0     133.385 133.789 135.262  0.00  0.00     0.178 HD
ATOM     21  H           0     130.835 136.942 135.264  0.00  0.00     0.181 HD
ENDROOT
BRANCH   6  22
ATOM     22  C           0     131.082 131.658 134.642  0.00  0.00     0.208 C 
BRANCH  22  23
ATOM     23  O           0     131.596 131.751 135.997  0.00  0.00    -0.302 OA
BRANCH  23  24
ATOM     24  C           0     130.753 131.988 137.021  0.00  0.00     0.358 C 
ATOM     25  N           0     129.564 131.355 137.074  0.00  0.00    -0.346 N 
ATOM     26  H           0     129.316 130.729 136.376  0.00  0.00     0.161 HD
ATOM     27  H           0     128.957 131.525 137.811  0.00  0.00     0.161 HD
ATOM     28  O           0     131.065 132.771 137.896  0.00  0.00    -0.239 OA
ENDBRANCH  23  24
ENDBRANCH  22  23
ENDBRANCH   6  22
BRANCH  14  29
ATOM     29  O           0     132.486 134.873 131.738  0.00  0.00    -0.364 OA
ATOM     30  H           0     132.506 133.937 131.496  0.00  0.00     0.212 HD
ENDBRANCH  14  29
BRANCH  18  31
ATOM     31  O           0     133.143 136.871 133.239  0.00  0.00    -0.366 OA
ATOM     32  H           0     133.104 137.449 132.464  0.00  0.00     0.212 HD
ENDBRANCH  18  31
TORSDOF 5
ENDMDL
MODEL 8
REMARK VINA RESULT:      -6.4      2.286      4.129
REMARK  5 active torsions:
REMARK  status: ('A' for Active; 'I' for Inactive)
REMARK    1  A    between atoms: C_6  and  C_7 
REMARK    2  A    between atoms: C_7  and  O_8 
REMARK    3  A    between atoms: O_8  and  C_9 
REMARK       I    between atoms: C_9  and  N_10 
REMARK    4  A    between atoms: C_19  and  O_20 
REMARK    5  A    between atoms: C_24  and  O_25 
ROOT
ATOM      1  N           0     139.364 130.777 145.881  0.00  0.00    -0.235 N 
ATOM      2  H           0     139.522 129.980 146.410  0.00  0.00     0.174 HD
ATOM      3  H           0     140.107 131.223 145.445  0.00  0.00     0.174 HD
ATOM      4  C           0     138.156 131.247 145.752  0.00  0.00     0.672 C 
ATOM      5  N           0     137.066 130.640 146.352  0.00  0.00    -0.218 N 
ATOM      6  C           0     135.761 130.769 145.709  0.00  0.00     0.152 C 
ATOM      7  C           0     135.430 132.198 145.344  0.00  0.00     0.185 C 
ATOM      8  N           0     134.295 132.255 144.419  0.00  0.00    -0.215 N 
ATOM      9  C           0     134.546 132.023 143.074  0.00  0.00     0.670 C 
ATOM     10  N           0     135.811 132.388 142.637  0.00  0.00    -0.189 N 
ATOM     11  N           0     133.657 131.497 142.280  0.00  0.00    -0.235 N 
ATOM     12  H           0     132.783 131.254 142.621  0.00  0.00     0.174 HD
ATOM     13  H           0     133.869 131.350 141.344  0.00  0.00     0.174 HD
ATOM     14  C           0     136.583 133.028 144.857  0.00  0.00     0.224 C 
ATOM     15  N           0     137.889 132.373 145.020  0.00  0.00    -0.178 N 
ATOM     16  C           0     138.813 133.117 144.147  0.00  0.00     0.150 C 
ATOM     17  C           0     137.974 133.450 142.892  0.00  0.00     0.087 C 
ATOM     18  C           0     136.501 133.441 143.397  0.00  0.00     0.202 C 
ATOM     19  H           0     137.167 130.141 147.179  0.00  0.00     0.178 HD
ATOM     20  H           0     133.399 132.447 144.735  0.00  0.00     0.178 HD
ATOM     21  H           0     136.222 131.969 141.864  0.00  0.00     0.181 HD
ENDROOT
BRANCH   6  22
ATOM     22  C           0     134.686 130.245 146.663  0.00  0.00     0.208 C 
BRANCH  22  23
ATOM     23  O           0     134.682 128.793 146.635  0.00  0.00    -0.302 OA
BRANCH  23  24
ATOM     24  C           0     133.886 128.105 147.477  0.00  0.00     0.358 C 
ATOM     25  N           0     132.592 127.896 147.160  0.00  0.00    -0.346 N 
ATOM     26  H           0     132.235 128.239 146.326  0.00  0.00     0.161 HD
ATOM     27  H           0     132.019 127.401 147.765  0.00  0.00     0.161 HD
ATOM     28  O           0     134.334 127.674 148.520  0.00  0.00    -0.239 OA
ENDBRANCH  23  24
ENDBRANCH  22  23
ENDBRANCH   6  22
BRANCH  14  29
ATOM     29  O           0     136.626 134.231 145.627  0.00  0.00    -0.364 OA
ATOM     30  H           0     137.173 134.858 145.135  0.00  0.00     0.212 HD
ENDBRANCH  14  29
BRANCH  18  31
ATOM     31  O           0     135.880 134.713 143.200  0.00  0.00    -0.366 OA
ATOM     32  H           0     135.648 135.050 144.077  0.00  0.00     0.212 HD
ENDBRANCH  18  31
TORSDOF 5
ENDMDL
MODEL 9
REMARK VINA RESULT:      -6.4      9.456     12.114
REMARK  5 active torsions:
REMARK  status: ('A' for Active; 'I' for Inactive)
REMARK    1  A    between atoms: C_6  and  C_7 
REMARK    2  A    between atoms: C_7  and  O_8 
REMARK    3  A    between atoms: O_8  and  C_9 
REMARK       I    between atoms: C_9  and  N_10 
REMARK    4  A    between atoms: C_19  and  O_20 
REMARK    5  A    between atoms: C_24  and  O_25 
ROOT
ATOM      1  N           0     128.976 133.445 131.293  0.00  0.00    -0.235 N 
ATOM      2  H           0     128.815 134.400 131.348  0.00  0.00     0.174 HD
ATOM      3  H           0     128.728 132.958 130.491  0.00  0.00     0.174 HD
ATOM      4  C           0     129.528 132.817 132.291  0.00  0.00     0.672 C 
ATOM      5  N           0     129.904 133.472 133.451  0.00  0.00    -0.218 N 
ATOM      6  C           0     131.027 132.937 134.216  0.00  0.00     0.152 C 
ATOM      7  C           0     130.906 131.452 134.469  0.00  0.00     0.185 C 
ATOM      8  N           0     132.179 130.892 134.932  0.00  0.00    -0.215 N 
ATOM      9  C           0     133.141 130.599 133.975  0.00  0.00     0.670 C 
ATOM     10  N           0     132.648 130.250 132.727  0.00  0.00    -0.189 N 
ATOM     11  N           0     134.417 130.651 134.232  0.00  0.00    -0.235 N 
ATOM     12  H           0     134.725 130.899 135.118  0.00  0.00     0.174 HD
ATOM     13  H           0     135.062 130.439 133.538  0.00  0.00     0.174 HD
ATOM     14  C           0     130.324 130.647 133.343  0.00  0.00     0.224 C 
ATOM     15  N           0     129.768 131.469 132.258  0.00  0.00    -0.178 N 
ATOM     16  C           0     129.630 130.560 131.107  0.00  0.00     0.150 C 
ATOM     17  C           0     130.881 129.654 131.180  0.00  0.00     0.087 C 
ATOM     18  C           0     131.292 129.680 132.681  0.00  0.00     0.202 C 
ATOM     19  H           0     129.432 134.266 133.749  0.00  0.00     0.178 HD
ATOM     20  H           0     132.344 130.731 135.874  0.00  0.00     0.178 HD
ATOM     21  H           0     133.173 130.375 131.920  0.00  0.00     0.181 HD
ENDROOT
BRANCH   6  22
ATOM     22  C           0     131.098 133.660 135.563  0.00  0.00     0.208 C 
BRANCH  22  23
ATOM     23  O           0     132.467 134.072 135.819  0.00  0.00    -0.302 OA
BRANCH  23  24
ATOM     24  C           0     132.758 135.379 135.971  0.00  0.00     0.358 C 
ATOM     25  N           0     131.794 136.245 136.340  0.00  0.00    -0.346 N 
ATOM     26  H           0     130.891 135.928 136.497  0.00  0.00     0.161 HD
ATOM     27  H           0     132.004 137.185 136.450  0.00  0.00     0.161 HD
ATOM     28  O           0     133.890 135.775 135.776  0.00  0.00    -0.239 OA
ENDBRANCH  23  24
ENDBRANCH  22  23
ENDBRANCH   6  22
BRANCH  14  29
ATOM     29  O           0     129.247 129.864 133.861  0.00  0.00    -0.364 OA
ATOM     30  H           0     129.229 130.011 134.816  0.00  0.00     0.212 HD
ENDBRANCH  14  29
BRANCH  18  31
ATOM     31  O           0     131.263 128.369 133.247  0.00  0.00    -0.366 OA
ATOM     32  H           0     132.171 128.150 133.496  0.00  0.00     0.212 HD
ENDBRANCH  18  31
TORSDOF 5
ENDMDL
