MODEL 1
REMARK VINA RESULT:      -7.4      0.000      0.000
REMARK  5 active torsions:
REMARK  status: ('A' for Active; 'I' for Inactive)
REMARK    1  A    between atoms: C_6  and  C_7 
REMARK    2  A    between atoms: C_7  and  O_8 
REMARK    3  A    between atoms: O_8  and  C_9 
REMARK       I    between atoms: C_9  and  N_10 
REMARK    4  A    between atoms: C_25  and  O_26 
REMARK    5  A    between atoms: C_25  and  O_27 
ROOT
ATOM      1  N           0     134.901 132.139 146.734  0.00  0.00    -0.235 N 
ATOM      2  H           0     135.136 132.266 147.666  0.00  0.00     0.174 HD
ATOM      3  H           0     134.258 131.456 146.484  0.00  0.00     0.174 HD
ATOM      4  C           0     135.443 132.890 145.816  0.00  0.00     0.672 C 
ATOM      5  N           0     136.359 133.882 146.123  0.00  0.00    -0.218 N 
ATOM      6  C           0     137.355 134.237 145.118  0.00  0.00     0.151 C 
ATOM      7  C           0     136.742 134.530 143.762  0.00  0.00     0.180 C 
ATOM      8  N           0     136.133 135.877 143.786  0.00  0.00    -0.216 N 
ATOM      9  C           0     134.952 135.810 143.087  0.00  0.00     0.670 C 
ATOM     10  N           0     134.334 136.847 142.593  0.00  0.00    -0.235 N 
ATOM     11  H           0     134.707 137.734 142.711  0.00  0.00     0.174 HD
ATOM     12  H           0     133.502 136.729 142.108  0.00  0.00     0.174 HD
ATOM     13  C           0     135.587 133.613 143.392  0.00  0.00     0.217 C 
ATOM     14  N           0     134.505 134.517 142.971  0.00  0.00    -0.191 N 
ATOM     15  N           0     135.148 132.745 144.486  0.00  0.00    -0.183 N 
ATOM     16  C           0     134.379 131.665 143.842  0.00  0.00     0.150 C 
ATOM     17  C           0     135.156 131.368 142.536  0.00  0.00     0.093 C 
ATOM     18  C           0     135.953 132.664 142.240  0.00  0.00     0.209 C 
ATOM     19  H           0     136.337 134.330 146.983  0.00  0.00     0.178 HD
ATOM     20  H           0     136.499 136.664 144.217  0.00  0.00     0.178 HD
ATOM     21  H           0     133.626 134.247 142.662  0.00  0.00     0.180 HD
ENDROOT
BRANCH   6  22
ATOM     22  C           0     138.343 133.077 144.970  0.00  0.00     0.208 C 
BRANCH  22  23
ATOM     23  O           0     138.949 132.791 146.258  0.00  0.00    -0.302 OA
BRANCH  23  24
ATOM     24  C           0     138.825 131.566 146.803  0.00  0.00     0.362 C 
ATOM     25  N           0     138.514 131.437 148.108  0.00  0.00    -0.337 N 
ATOM     26  C           0     138.379 130.105 148.702  0.00  0.00     0.154 C 
ATOM     27  C           0     138.312 132.630 148.935  0.00  0.00     0.154 C 
ATOM     28  O           0     138.993 130.577 146.119  0.00  0.00    -0.238 OA
ENDBRANCH  23  24
ENDBRANCH  22  23
ENDBRANCH   6  22
BRANCH  18  29
ATOM     29  O           0     135.554 133.219 140.984  0.00  0.00    -0.362 OA
ATOM     30  H           0     135.449 134.170 141.121  0.00  0.00     0.213 HD
ENDBRANCH  18  29
BRANCH  18  31
ATOM     31  O           0     137.357 132.395 142.243  0.00  0.00    -0.362 OA
ATOM     32  H           0     137.458 131.434 142.243  0.00  0.00     0.213 HD
ENDBRANCH  18  31
TORSDOF 5
ENDMDL
MODEL 2
REMARK VINA RESULT:      -7.0      1.889      5.816
REMARK  5 active torsions:
REMARK  status: ('A' for Active; 'I' for Inactive)
REMARK    1  A    between atoms: C_6  and  C_7 
REMARK    2  A    between atoms: C_7  and  O_8 
REMARK    3  A    between atoms: O_8  and  C_9 
REMARK       I    between atoms: C_9  and  N_10 
REMARK    4  A    between atoms: C_25  and  O_26 
REMARK    5  A    between atoms: C_25  and  O_27 
ROOT
ATOM      1  N           0     136.247 134.645 147.777  0.00  0.00    -0.235 N 
ATOM      2  H           0     135.774 135.409 147.412  0.00  0.00     0.174 HD
ATOM      3  H           0     136.781 134.743 148.582  0.00  0.00     0.174 HD
ATOM      4  C           0     136.163 133.484 147.189  0.00  0.00     0.672 C 
ATOM      5  N           0     135.411 133.292 146.043  0.00  0.00    -0.218 N 
ATOM      6  C           0     135.820 132.242 145.116  0.00  0.00     0.151 C 
ATOM      7  C           0     136.031 130.906 145.800  0.00  0.00     0.180 C 
ATOM      8  N           0     134.715 130.291 146.081  0.00  0.00    -0.216 N 
ATOM      9  C           0     134.790 129.701 147.319  0.00  0.00     0.670 C 
ATOM     10  N           0     133.973 128.775 147.739  0.00  0.00    -0.235 N 
ATOM     11  H           0     133.257 128.464 147.164  0.00  0.00     0.174 HD
ATOM     12  H           0     134.082 128.399 148.626  0.00  0.00     0.174 HD
ATOM     13  C           0     136.687 131.006 147.168  0.00  0.00     0.217 C 
ATOM     14  N           0     135.831 130.205 148.059  0.00  0.00    -0.191 N 
ATOM     15  N           0     136.817 132.377 147.662  0.00  0.00    -0.183 N 
ATOM     16  C           0     137.836 132.313 148.726  0.00  0.00     0.150 C 
ATOM     17  C           0     138.882 131.303 148.194  0.00  0.00     0.093 C 
ATOM     18  C           0     138.115 130.436 147.164  0.00  0.00     0.209 C 
ATOM     19  H           0     134.631 133.841 145.861  0.00  0.00     0.178 HD
ATOM     20  H           0     133.941 130.303 145.498  0.00  0.00     0.178 HD
ATOM     21  H           0     135.979 130.055 149.006  0.00  0.00     0.180 HD
ENDROOT
BRANCH   6  22
ATOM     22  C           0     137.128 132.661 144.441  0.00  0.00     0.208 C 
BRANCH  22  23
ATOM     23  O           0     136.845 133.629 143.396  0.00  0.00    -0.302 OA
BRANCH  23  24
ATOM     24  C           0     135.822 133.421 142.546  0.00  0.00     0.362 C 
ATOM     25  N           0     134.812 134.312 142.476  0.00  0.00    -0.337 N 
ATOM     26  C           0     133.699 134.087 141.551  0.00  0.00     0.154 C 
ATOM     27  C           0     134.828 135.505 143.326  0.00  0.00     0.154 C 
ATOM     28  O           0     135.808 132.433 141.841  0.00  0.00    -0.238 OA
ENDBRANCH  23  24
ENDBRANCH  22  23
ENDBRANCH   6  22
BRANCH  18  29
ATOM     29  O           0     138.111 129.065 147.570  0.00  0.00    -0.362 OA
ATOM     30  H           0     137.771 129.044 148.475  0.00  0.00     0.213 HD
ENDBRANCH  18  29
BRANCH  18  31
ATOM     31  O           0     138.700 130.571 145.867  0.00  0.00    -0.362 OA
ATOM     32  H           0     138.629 129.708 145.437  0.00  0.00     0.213 HD
ENDBRANCH  18  31
TORSDOF 5
ENDMDL
MODEL 3
REMARK VINA RESULT:      -6.8      2.172      5.864
REMARK  5 active torsions:
REMARK  status: ('A' for Active; 'I' for Inactive)
REMARK    1  A    between atoms: C_6  and  C_7 
REMARK    2  A    between atoms: C_7  and  O_8 
REMARK    3  A    between atoms: O_8  and  C_9 
REMARK       I    between atoms: C_9  and  N_10 
REMARK    4  A    between atoms: C_25  and  O_26 
REMARK    5  A    between atoms: C_25  and  O_27 
ROOT
ATOM      1  N           0     135.918 133.650 149.398  0.00  0.00    -0.235 N 
ATOM      2  H           0     135.492 134.505 149.231  0.00  0.00     0.174 HD
ATOM      3  H           0     136.319 133.467 150.263  0.00  0.00     0.174 HD
ATOM      4  C           0     135.946 132.742 148.462  0.00  0.00     0.672 C 
ATOM      5  N           0     135.383 132.952 147.215  0.00  0.00    -0.218 N 
ATOM      6  C           0     135.950 132.242 146.073  0.00  0.00     0.151 C 
ATOM      7  C           0     136.077 130.751 146.315  0.00  0.00     0.180 C 
ATOM      8  N           0     134.746 130.122 146.180  0.00  0.00    -0.216 N 
ATOM      9  C           0     134.640 129.163 147.158  0.00  0.00     0.670 C 
ATOM     10  N           0     133.785 128.179 147.129  0.00  0.00    -0.235 N 
ATOM     11  H           0     133.172 128.091 146.382  0.00  0.00     0.174 HD
ATOM     12  H           0     133.763 127.535 147.854  0.00  0.00     0.174 HD
ATOM     13  C           0     136.513 130.386 147.725  0.00  0.00     0.217 C 
ATOM     14  N           0     135.545 129.369 148.169  0.00  0.00    -0.191 N 
ATOM     15  N           0     136.540 131.521 148.648  0.00  0.00    -0.183 N 
ATOM     16  C           0     137.384 131.087 149.776  0.00  0.00     0.150 C 
ATOM     17  C           0     138.517 130.268 149.112  0.00  0.00     0.093 C 
ATOM     18  C           0     137.935 129.802 147.754  0.00  0.00     0.209 C 
ATOM     19  H           0     134.631 133.555 147.104  0.00  0.00     0.178 HD
ATOM     20  H           0     134.071 130.345 145.521  0.00  0.00     0.178 HD
ATOM     21  H           0     135.548 128.919 149.029  0.00  0.00     0.180 HD
ENDROOT
BRANCH   6  22
ATOM     22  C           0     137.338 132.813 145.776  0.00  0.00     0.208 C 
BRANCH  22  23
ATOM     23  O           0     137.286 133.604 144.560  0.00  0.00    -0.302 OA
BRANCH  23  24
ATOM     24  C           0     136.804 133.063 143.425  0.00  0.00     0.362 C 
ATOM     25  N           0     135.736 133.616 142.815  0.00  0.00    -0.337 N 
ATOM     26  C           0     135.211 133.027 141.580  0.00  0.00     0.154 C 
ATOM     27  C           0     135.099 134.804 143.388  0.00  0.00     0.154 C 
ATOM     28  O           0     137.331 132.078 142.950  0.00  0.00    -0.238 OA
ENDBRANCH  23  24
ENDBRANCH  22  23
ENDBRANCH   6  22
BRANCH  18  29
ATOM     29  O           0     137.894 128.374 147.692  0.00  0.00    -0.362 OA
ATOM     30  H           0     137.243 128.143 147.015  0.00  0.00     0.213 HD
ENDBRANCH  18  29
BRANCH  18  31
ATOM     31  O           0     138.710 130.326 146.674  0.00  0.00    -0.362 OA
ATOM     32  H           0     139.371 129.657 146.453  0.00  0.00     0.213 HD
ENDBRANCH  18  31
TORSDOF 5
ENDMDL
MODEL 4
REMARK VINA RESULT:      -6.7      2.776      3.929
REMARK  5 active torsions:
REMARK  status: ('A' for Active; 'I' for Inactive)
REMARK    1  A    between atoms: C_6  and  C_7 
REMARK    2  A    between atoms: C_7  and  O_8 
REMARK    3  A    between atoms: O_8  and  C_9 
REMARK       I    between atoms: C_9  and  N_10 
REMARK    4  A    between atoms: C_25  and  O_26 
REMARK    5  A    between atoms: C_25  and  O_27 
ROOT
ATOM      1  N           0     138.843 130.773 145.492  0.00  0.00    -0.235 N 
ATOM      2  H           0     138.997 130.046 146.117  0.00  0.00     0.174 HD
ATOM      3  H           0     139.584 131.143 144.986  0.00  0.00     0.174 HD
ATOM      4  C           0     137.641 131.248 145.328  0.00  0.00     0.672 C 
ATOM      5  N           0     136.551 130.750 146.021  0.00  0.00    -0.218 N 
ATOM      6  C           0     135.432 131.649 146.288  0.00  0.00     0.151 C 
ATOM      7  C           0     134.944 132.362 145.043  0.00  0.00     0.180 C 
ATOM      8  N           0     134.136 131.426 144.232  0.00  0.00    -0.216 N 
ATOM      9  C           0     134.444 131.648 142.912  0.00  0.00     0.670 C 
ATOM     10  N           0     133.690 131.282 141.913  0.00  0.00    -0.235 N 
ATOM     11  H           0     132.854 130.822 142.080  0.00  0.00     0.174 HD
ATOM     12  H           0     133.968 131.471 141.002  0.00  0.00     0.174 HD
ATOM     13  C           0     136.055 132.796 144.100  0.00  0.00     0.217 C 
ATOM     14  N           0     135.643 132.303 142.775  0.00  0.00    -0.191 N 
ATOM     15  N           0     137.374 132.277 144.463  0.00  0.00    -0.183 N 
ATOM     16  C           0     138.340 133.132 143.749  0.00  0.00     0.150 C 
ATOM     17  C           0     137.729 134.552 143.833  0.00  0.00     0.093 C 
ATOM     18  C           0     136.214 134.325 144.062  0.00  0.00     0.209 C 
ATOM     19  H           0     136.531 129.827 146.321  0.00  0.00     0.178 HD
ATOM     20  H           0     133.504 130.773 144.571  0.00  0.00     0.178 HD
ATOM     21  H           0     136.132 132.423 141.946  0.00  0.00     0.180 HD
ENDROOT
BRANCH   6  22
ATOM     22  C           0     135.873 132.695 147.313  0.00  0.00     0.208 C 
BRANCH  22  23
ATOM     23  O           0     135.901 132.096 148.635  0.00  0.00    -0.302 OA
BRANCH  23  24
ATOM     24  C           0     134.806 131.478 149.117  0.00  0.00     0.362 C 
ATOM     25  N           0     134.881 130.194 149.524  0.00  0.00    -0.337 N 
ATOM     26  C           0     133.690 129.521 150.048  0.00  0.00     0.154 C 
ATOM     27  C           0     136.153 129.472 149.441  0.00  0.00     0.154 C 
ATOM     28  O           0     133.751 132.075 149.186  0.00  0.00    -0.238 OA
ENDBRANCH  23  24
ENDBRANCH  22  23
ENDBRANCH   6  22
BRANCH  18  29
ATOM     29  O           0     135.457 134.883 142.986  0.00  0.00    -0.362 OA
ATOM     30  H           0     134.728 134.271 142.810  0.00  0.00     0.213 HD
ENDBRANCH  18  29
BRANCH  18  31
ATOM     31  O           0     135.807 134.897 145.308  0.00  0.00    -0.362 OA
ATOM     32  H           0     135.752 135.852 145.172  0.00  0.00     0.213 HD
ENDBRANCH  18  31
TORSDOF 5
ENDMDL
MODEL 5
REMARK VINA RESULT:      -6.7     10.187     13.113
REMARK  5 active torsions:
REMARK  status: ('A' for Active; 'I' for Inactive)
REMARK    1  A    between atoms: C_6  and  C_7 
REMARK    2  A    between atoms: C_7  and  O_8 
REMARK    3  A    between atoms: O_8  and  C_9 
REMARK       I    between atoms: C_9  and  N_10 
REMARK    4  A    between atoms: C_25  and  O_26 
REMARK    5  A    between atoms: C_25  and  O_27 
ROOT
ATOM      1  N           0     128.860 133.701 131.929  0.00  0.00    -0.235 N 
ATOM      2  H           0     128.187 133.209 131.433  0.00  0.00     0.174 HD
ATOM      3  H           0     128.963 134.656 131.792  0.00  0.00     0.174 HD
ATOM      4  C           0     129.624 133.079 132.784  0.00  0.00     0.672 C 
ATOM      5  N           0     129.511 131.720 133.019  0.00  0.00    -0.218 N 
ATOM      6  C           0     130.700 130.993 133.451  0.00  0.00     0.151 C 
ATOM      7  C           0     131.388 131.645 134.634  0.00  0.00     0.180 C 
ATOM      8  N           0     130.627 131.343 135.866  0.00  0.00    -0.216 N 
ATOM      9  C           0     130.623 132.479 136.638  0.00  0.00     0.670 C 
ATOM     10  N           0     130.374 132.492 137.918  0.00  0.00    -0.235 N 
ATOM     11  H           0     130.176 131.664 138.382  0.00  0.00     0.174 HD
ATOM     12  H           0     130.387 133.331 138.406  0.00  0.00     0.174 HD
ATOM     13  C           0     131.408 133.165 134.580  0.00  0.00     0.217 C 
ATOM     14  N           0     130.913 133.598 135.897  0.00  0.00    -0.191 N 
ATOM     15  N           0     130.592 133.728 133.504  0.00  0.00    -0.183 N 
ATOM     16  C           0     131.078 135.109 133.328  0.00  0.00     0.150 C 
ATOM     17  C           0     132.611 135.002 133.515  0.00  0.00     0.093 C 
ATOM     18  C           0     132.825 133.714 134.349  0.00  0.00     0.209 C 
ATOM     19  H           0     128.663 131.262 132.900  0.00  0.00     0.178 HD
ATOM     20  H           0     130.208 130.498 136.087  0.00  0.00     0.178 HD
ATOM     21  H           0     130.811 134.516 136.193  0.00  0.00     0.180 HD
ENDROOT
BRANCH   6  22
ATOM     22  C           0     131.688 130.923 132.285  0.00  0.00     0.208 C 
BRANCH  22  23
ATOM     23  O           0     131.631 129.605 131.679  0.00  0.00    -0.302 OA
BRANCH  23  24
ATOM     24  C           0     131.903 128.513 132.419  0.00  0.00     0.362 C 
ATOM     25  N           0     131.081 127.445 132.372  0.00  0.00    -0.337 N 
ATOM     26  C           0     131.376 126.257 133.176  0.00  0.00     0.154 C 
ATOM     27  C           0     129.891 127.473 131.517  0.00  0.00     0.154 C 
ATOM     28  O           0     132.889 128.489 133.128  0.00  0.00    -0.238 OA
ENDBRANCH  23  24
ENDBRANCH  22  23
ENDBRANCH   6  22
BRANCH  18  29
ATOM     29  O           0     133.455 134.024 135.594  0.00  0.00    -0.362 OA
ATOM     30  H           0     133.939 133.232 135.866  0.00  0.00     0.213 HD
ENDBRANCH  18  29
BRANCH  18  31
ATOM     31  O           0     133.610 132.771 133.614  0.00  0.00    -0.362 OA
ATOM     32  H           0     133.804 132.040 134.216  0.00  0.00     0.213 HD
ENDBRANCH  18  31
TORSDOF 5
ENDMDL
MODEL 6
REMARK VINA RESULT:      -6.4      2.430      6.316
REMARK  5 active torsions:
REMARK  status: ('A' for Active; 'I' for Inactive)
REMARK    1  A    between atoms: C_6  and  C_7 
REMARK    2  A    between atoms: C_7  and  O_8 
REMARK    3  A    between atoms: O_8  and  C_9 
REMARK       I    between atoms: C_9  and  N_10 
REMARK    4  A    between atoms: C_25  and  O_26 
REMARK    5  A    between atoms: C_25  and  O_27 
ROOT
ATOM      1  N           0     135.815 133.457 149.297  0.00  0.00    -0.235 N 
ATOM      2  H           0     135.297 134.256 149.112  0.00  0.00     0.174 HD
ATOM      3  H           0     136.357 133.404 150.101  0.00  0.00     0.174 HD
ATOM      4  C           0     135.780 132.450 148.469  0.00  0.00     0.672 C 
ATOM      5  N           0     135.018 132.475 147.313  0.00  0.00    -0.218 N 
ATOM      6  C           0     135.464 131.677 146.175  0.00  0.00     0.151 C 
ATOM      7  C           0     135.755 130.236 146.548  0.00  0.00     0.180 C 
ATOM      8  N           0     134.478 129.505 146.694  0.00  0.00    -0.216 N 
ATOM      9  C           0     134.604 128.663 147.772  0.00  0.00     0.670 C 
ATOM     10  N           0     133.843 127.625 147.982  0.00  0.00    -0.235 N 
ATOM     11  H           0     133.134 127.409 147.357  0.00  0.00     0.174 HD
ATOM     12  H           0     133.986 127.070 148.765  0.00  0.00     0.174 HD
ATOM     13  C           0     136.429 130.069 147.901  0.00  0.00     0.217 C 
ATOM     14  N           0     135.631 129.047 148.598  0.00  0.00    -0.191 N 
ATOM     15  N           0     136.498 131.303 148.683  0.00  0.00    -0.183 N 
ATOM     16  C           0     137.537 131.062 149.700  0.00  0.00     0.150 C 
ATOM     17  C           0     138.623 130.251 148.954  0.00  0.00     0.093 C 
ATOM     18  C           0     137.884 129.591 147.762  0.00  0.00     0.209 C 
ATOM     19  H           0     134.209 133.007 147.262  0.00  0.00     0.178 HD
ATOM     20  H           0     133.694 129.603 146.133  0.00  0.00     0.178 HD
ATOM     21  H           0     135.802 128.701 149.488  0.00  0.00     0.180 HD
ENDROOT
BRANCH   6  22
ATOM     22  C           0     136.737 132.303 145.602  0.00  0.00     0.208 C 
BRANCH  22  23
ATOM     23  O           0     136.496 132.720 144.232  0.00  0.00    -0.302 OA
BRANCH  23  24
ATOM     24  C           0     135.645 133.731 143.976  0.00  0.00     0.362 C 
ATOM     25  N           0     135.072 133.839 142.760  0.00  0.00    -0.337 N 
ATOM     26  C           0     134.145 134.938 142.481  0.00  0.00     0.154 C 
ATOM     27  C           0     135.378 132.857 141.717  0.00  0.00     0.154 C 
ATOM     28  O           0     135.391 134.546 144.840  0.00  0.00    -0.238 OA
ENDBRANCH  23  24
ENDBRANCH  22  23
ENDBRANCH   6  22
BRANCH  18  29
ATOM     29  O           0     137.957 128.167 147.857  0.00  0.00    -0.362 OA
ATOM     30  H           0     137.049 127.837 147.820  0.00  0.00     0.213 HD
ENDBRANCH  18  29
BRANCH  18  31
ATOM     31  O           0     138.438 130.038 146.523  0.00  0.00    -0.362 OA
ATOM     32  H           0     137.837 130.710 146.174  0.00  0.00     0.213 HD
ENDBRANCH  18  31
TORSDOF 5
ENDMDL
MODEL 7
REMARK VINA RESULT:      -6.4      3.771      5.645
REMARK  5 active torsions:
REMARK  status: ('A' for Active; 'I' for Inactive)
REMARK    1  A    between atoms: C_6  and  C_7 
REMARK    2  A    between atoms: C_7  and  O_8 
REMARK    3  A    between atoms: O_8  and  C_9 
REMARK       I    between atoms: C_9  and  N_10 
REMARK    4  A    between atoms: C_25  and  O_26 
REMARK    5  A    between atoms: C_25  and  O_27 
ROOT
ATOM      1  N           0     138.774 129.176 147.946  0.00  0.00    -0.235 N 
ATOM      2  H           0     138.766 128.214 148.074  0.00  0.00     0.174 HD
ATOM      3  H           0     139.529 129.701 148.258  0.00  0.00     0.174 HD
ATOM      4  C           0     137.774 129.763 147.351  0.00  0.00     0.672 C 
ATOM      5  N           0     136.679 129.058 146.883  0.00  0.00    -0.218 N 
ATOM      6  C           0     135.392 129.744 146.817  0.00  0.00     0.151 C 
ATOM      7  C           0     135.474 131.073 146.091  0.00  0.00     0.180 C 
ATOM      8  N           0     135.536 130.827 144.634  0.00  0.00    -0.216 N 
ATOM      9  C           0     136.429 131.724 144.101  0.00  0.00     0.670 C 
ATOM     10  N           0     136.475 132.049 142.839  0.00  0.00    -0.235 N 
ATOM     11  H           0     135.852 131.649 142.213  0.00  0.00     0.174 HD
ATOM     12  H           0     137.132 132.692 142.528  0.00  0.00     0.174 HD
ATOM     13  C           0     136.739 131.863 146.383  0.00  0.00     0.217 C 
ATOM     14  N           0     137.266 132.237 145.061  0.00  0.00    -0.191 N 
ATOM     15  N           0     137.737 131.119 147.153  0.00  0.00    -0.183 N 
ATOM     16  C           0     138.643 132.140 147.708  0.00  0.00     0.150 C 
ATOM     17  C           0     137.709 133.314 148.090  0.00  0.00     0.093 C 
ATOM     18  C           0     136.449 133.129 147.207  0.00  0.00     0.209 C 
ATOM     19  H           0     136.764 128.132 146.606  0.00  0.00     0.178 HD
ATOM     20  H           0     135.039 130.154 144.145  0.00  0.00     0.178 HD
ATOM     21  H           0     138.067 132.759 144.895  0.00  0.00     0.180 HD
ENDROOT
BRANCH   6  22
ATOM     22  C           0     134.891 129.992 148.241  0.00  0.00     0.208 C 
BRANCH  22  23
ATOM     23  O           0     134.536 128.726 148.857  0.00  0.00    -0.302 OA
BRANCH  23  24
ATOM     24  C           0     133.792 128.708 149.979  0.00  0.00     0.362 C 
ATOM     25  N           0     132.465 128.482 149.905  0.00  0.00    -0.337 N 
ATOM     26  C           0     131.655 128.463 151.125  0.00  0.00     0.154 C 
ATOM     27  C           0     131.832 128.257 148.603  0.00  0.00     0.154 C 
ATOM     28  O           0     134.316 128.895 151.059  0.00  0.00    -0.238 OA
ENDBRANCH  23  24
ENDBRANCH  22  23
ENDBRANCH   6  22
BRANCH  18  29
ATOM     29  O           0     136.271 134.258 146.349  0.00  0.00    -0.362 OA
ATOM     30  H           0     136.590 133.997 145.474  0.00  0.00     0.213 HD
ENDBRANCH  18  29
BRANCH  18  31
ATOM     31  O           0     135.293 132.935 148.025  0.00  0.00    -0.362 OA
ATOM     32  H           0     135.611 132.728 148.913  0.00  0.00     0.213 HD
ENDBRANCH  18  31
TORSDOF 5
ENDMDL
MODEL 8
REMARK VINA RESULT:      -6.3      2.287      3.430
REMARK  5 active torsions:
REMARK  status: ('A' for Active; 'I' for Inactive)
REMARK    1  A    between atoms: C_6  and  C_7 
REMARK    2  A    between atoms: C_7  and  O_8 
REMARK    3  A    between atoms: O_8  and  C_9 
REMARK       I    between atoms: C_9  and  N_10 
REMARK    4  A    between atoms: C_25  and  O_26 
REMARK    5  A    between atoms: C_25  and  O_27 
ROOT
ATOM      1  N           0     138.965 130.837 145.669  0.00  0.00    -0.235 N 
ATOM      2  H           0     139.072 130.222 146.412  0.00  0.00     0.174 HD
ATOM      3  H           0     139.712 131.018 145.077  0.00  0.00     0.174 HD
ATOM      4  C           0     137.815 131.417 145.464  0.00  0.00     0.672 C 
ATOM      5  N           0     136.719 131.187 146.277  0.00  0.00    -0.218 N 
ATOM      6  C           0     135.725 132.247 146.412  0.00  0.00     0.151 C 
ATOM      7  C           0     135.248 132.777 145.075  0.00  0.00     0.180 C 
ATOM      8  N           0     134.295 131.815 144.482  0.00  0.00    -0.216 N 
ATOM      9  C           0     134.549 131.757 143.133  0.00  0.00     0.670 C 
ATOM     10  N           0     133.703 131.310 142.247  0.00  0.00    -0.235 N 
ATOM     11  H           0     132.831 130.992 142.528  0.00  0.00     0.174 HD
ATOM     12  H           0     133.946 131.297 141.308  0.00  0.00     0.174 HD
ATOM     13  C           0     136.344 132.897 144.028  0.00  0.00     0.217 C 
ATOM     14  N           0     135.803 132.227 142.834  0.00  0.00    -0.191 N 
ATOM     15  N           0     137.616 132.297 144.433  0.00  0.00    -0.183 N 
ATOM     16  C           0     138.628 132.887 143.538  0.00  0.00     0.150 C 
ATOM     17  C           0     138.186 134.362 143.379  0.00  0.00     0.093 C 
ATOM     18  C           0     136.670 134.364 143.701  0.00  0.00     0.209 C 
ATOM     19  H           0     136.614 130.342 146.743  0.00  0.00     0.178 HD
ATOM     20  H           0     133.614 131.315 144.959  0.00  0.00     0.178 HD
ATOM     21  H           0     136.254 132.136 141.979  0.00  0.00     0.180 HD
ENDROOT
BRANCH   6  22
ATOM     22  C           0     136.338 133.400 147.209  0.00  0.00     0.208 C 
BRANCH  22  23
ATOM     23  O           0     136.724 132.927 148.526  0.00  0.00    -0.302 OA
BRANCH  23  24
ATOM     24  C           0     138.005 133.028 148.929  0.00  0.00     0.362 C 
ATOM     25  N           0     138.368 134.006 149.783  0.00  0.00    -0.337 N 
ATOM     26  C           0     139.761 134.116 150.222  0.00  0.00     0.154 C 
ATOM     27  C           0     137.369 134.959 150.273  0.00  0.00     0.154 C 
ATOM     28  O           0     138.834 132.238 148.524  0.00  0.00    -0.238 OA
ENDBRANCH  23  24
ENDBRANCH  22  23
ENDBRANCH   6  22
BRANCH  18  29
ATOM     29  O           0     135.919 134.806 142.568  0.00  0.00    -0.362 OA
ATOM     30  H           0     136.392 134.497 141.783  0.00  0.00     0.213 HD
ENDBRANCH  18  29
BRANCH  18  31
ATOM     31  O           0     136.403 135.196 144.833  0.00  0.00    -0.362 OA
ATOM     32  H           0     137.245 135.593 145.092  0.00  0.00     0.213 HD
ENDBRANCH  18  31
TORSDOF 5
ENDMDL
MODEL 9
REMARK VINA RESULT:      -6.3      9.489     12.212
REMARK  5 active torsions:
REMARK  status: ('A' for Active; 'I' for Inactive)
REMARK    1  A    between atoms: C_6  and  C_7 
REMARK    2  A    between atoms: C_7  and  O_8 
REMARK    3  A    between atoms: O_8  and  C_9 
REMARK       I    between atoms: C_9  and  N_10 
REMARK    4  A    between atoms: C_25  and  O_26 
REMARK    5  A    between atoms: C_25  and  O_27 
ROOT
ATOM      1  N           0     129.322 135.742 132.834  0.00  0.00    -0.235 N 
ATOM      2  H           0     128.438 135.352 132.747  0.00  0.00     0.174 HD
ATOM      3  H           0     129.538 136.566 132.369  0.00  0.00     0.174 HD
ATOM      4  C           0     130.220 135.161 133.580  0.00  0.00     0.672 C 
ATOM      5  N           0     129.959 133.989 134.268  0.00  0.00    -0.218 N 
ATOM      6  C           0     131.073 133.087 134.544  0.00  0.00     0.151 C 
ATOM      7  C           0     132.250 133.791 135.191  0.00  0.00     0.180 C 
ATOM      8  N           0     131.949 134.026 136.620  0.00  0.00    -0.216 N 
ATOM      9  C           0     132.430 135.271 136.945  0.00  0.00     0.670 C 
ATOM     10  N           0     132.672 135.668 138.163  0.00  0.00    -0.235 N 
ATOM     11  H           0     132.512 135.068 138.908  0.00  0.00     0.174 HD
ATOM     12  H           0     133.012 136.562 138.323  0.00  0.00     0.174 HD
ATOM     13  C           0     132.520 135.182 134.641  0.00  0.00     0.217 C 
ATOM     14  N           0     132.625 136.046 135.828  0.00  0.00    -0.191 N 
ATOM     15  N           0     131.484 135.669 133.730  0.00  0.00    -0.183 N 
ATOM     16  C           0     132.111 136.771 132.979  0.00  0.00     0.150 C 
ATOM     17  C           0     133.561 136.289 132.730  0.00  0.00     0.093 C 
ATOM     18  C           0     133.830 135.238 133.837  0.00  0.00     0.209 C 
ATOM     19  H           0     129.059 133.773 134.561  0.00  0.00     0.178 HD
ATOM     20  H           0     131.495 133.414 137.218  0.00  0.00     0.178 HD
ATOM     21  H           0     132.805 136.999 135.824  0.00  0.00     0.180 HD
ENDROOT
BRANCH   6  22
ATOM     22  C           0     131.538 132.460 133.229  0.00  0.00     0.208 C 
BRANCH  22  23
ATOM     23  O           0     131.551 131.014 133.360  0.00  0.00    -0.302 OA
BRANCH  23  24
ATOM     24  C           0     132.703 130.374 133.637  0.00  0.00     0.362 C 
ATOM     25  N           0     133.310 129.636 132.686  0.00  0.00    -0.337 N 
ATOM     26  C           0     134.563 128.940 132.987  0.00  0.00     0.154 C 
ATOM     27  C           0     132.717 129.530 131.351  0.00  0.00     0.154 C 
ATOM     28  O           0     133.195 130.461 134.744  0.00  0.00    -0.238 OA
ENDBRANCH  23  24
ENDBRANCH  22  23
ENDBRANCH   6  22
BRANCH  18  29
ATOM     29  O           0     134.914 135.655 134.669  0.00  0.00    -0.362 OA
ATOM     30  H           0     134.627 136.462 135.118  0.00  0.00     0.213 HD
ENDBRANCH  18  29
BRANCH  18  31
ATOM     31  O           0     134.110 133.963 133.254  0.00  0.00    -0.362 OA
ATOM     32  H           0     133.292 133.661 132.837  0.00  0.00     0.213 HD
ENDBRANCH  18  31
TORSDOF 5
ENDMDL
