# created with PyMOL 2.3.4
@<TRIPOS>MOLECULE
ligand_out_0001
32 34 1                 
SMALL
USER_CHARGES
@<TRIPOS>ATOM
1	   N	134.901	132.139	146.734	N.3	1	UNK0	-0.235	
2	   N	136.359	133.882	146.123	N.3	1	UNK0	-0.218	
3	   N	136.133	135.877	143.786	N.3	1	UNK0	-0.216	
4	   N	134.334	136.847	142.593	N.3	1	UNK0	-0.235	
5	   N	134.505	134.517	142.971	N.3	1	UNK0	-0.191	
6	   N	135.148	132.745	144.486	N.3	1	UNK0	-0.183	
7	   N	138.514	131.437	148.108	N.pl3	1	UNK0	-0.337	
8	   C	135.443	132.890	145.816	C.3	1	UNK0	0.672	
9	   C	137.355	134.237	145.118	C.3	1	UNK0	0.151	
10	   C	136.742	134.530	143.762	C.3	1	UNK0	0.180	
11	   C	134.952	135.810	143.087	C.3	1	UNK0	0.670	
12	   C	135.587	133.613	143.392	C.3	1	UNK0	0.217	
13	   C	134.379	131.665	143.842	C.3	1	UNK0	0.150	
14	   C	135.156	131.368	142.536	C.3	1	UNK0	0.093	
15	   C	135.953	132.664	142.240	C.3	1	UNK0	0.209	
16	   C	138.343	133.077	144.970	C.2	1	UNK0	0.208	
17	   C	138.825	131.566	146.803	C.2	1	UNK0	0.362	
18	   C	138.379	130.105	148.702	C.3	1	UNK0	0.154	
19	   C	138.312	132.630	148.935	C.3	1	UNK0	0.154	
20	   O	138.949	132.791	146.258	O.2	1	UNK0	-0.302	
21	   O	138.993	130.577	146.119	O.co2	1	UNK0	-0.238	
22	   O	135.554	133.219	140.984	O.2	1	UNK0	-0.362	
23	   O	137.357	132.395	142.243	O.2	1	UNK0	-0.362	
24	   H	135.136	132.266	147.666	 H	1	UNK0	0.174	
25	   H	134.258	131.456	146.484	 H	1	UNK0	0.174	
26	   H	134.707	137.734	142.711	 H	1	UNK0	0.174	
27	   H	133.502	136.729	142.108	 H	1	UNK0	0.174	
28	   H	136.337	134.330	146.983	 H	1	UNK0	0.178	
29	   H	136.499	136.664	144.217	 H	1	UNK0	0.178	
30	   H	133.626	134.247	142.662	 H	1	UNK0	0.180	
31	   H	135.449	134.170	141.121	 H	1	UNK0	0.213	
32	   H	137.458	131.434	142.243	 H	1	UNK0	0.213	
@<TRIPOS>BOND
1 1 8 1
2 1 24 1
3 1 25 1
4 2 9 1
5 2 28 1
6 3 11 1
7 3 29 1
8 4 26 1
9 4 27 1
10 5 30 1
11 6 13 1
12 7 18 1
13 7 19 1
14 2 8 1
15 6 8 1
16 9 10 1
17 9 16 1
18 3 10 1
19 10 12 1
20 4 11 1
21 5 11 1
22 5 12 1
23 6 12 1
24 12 15 1
25 13 14 1
26 14 15 1
27 15 22 2
28 15 23 2
29 16 20 2
30 7 17 1
31 17 21 2
32 17 20 2
33 22 31 1
34 23 32 1
@<TRIPOS>SUBSTRUCTURE
1	UNK0	1	GROUP	1 ****	UNK
