# created with PyMOL 2.3.4
@<TRIPOS>MOLECULE
ligand_out_0001
32 34 1                 
SMALL
USER_CHARGES
@<TRIPOS>ATOM
1	   N	134.865	132.052	146.725	N.3	1	UNK0	-0.235	
2	   N	136.353	133.774	146.131	N.3	1	UNK0	-0.218	
3	   N	136.152	135.807	143.824	N.3	1	UNK0	-0.216	
4	   N	134.367	136.829	142.656	N.3	1	UNK0	-0.235	
5	   N	134.494	134.491	143.000	N.3	1	UNK0	-0.191	
6	   N	135.110	132.685	144.485	N.3	1	UNK0	-0.183	
7	   N	139.968	130.685	146.900	N.pl3	1	UNK0	-0.337	
8	   C	135.416	132.805	145.815	C.3	1	UNK0	0.672	
9	   C	137.350	134.124	145.125	C.3	1	UNK0	0.151	
10	   C	136.735	134.449	143.778	C.3	1	UNK0	0.180	
11	   C	134.967	135.773	143.131	C.3	1	UNK0	0.670	
12	   C	135.560	133.560	143.402	C.3	1	UNK0	0.217	
13	   C	134.317	131.630	143.830	C.3	1	UNK0	0.150	
14	   C	135.080	131.337	142.516	C.3	1	UNK0	0.093	
15	   C	135.901	132.621	142.233	C.3	1	UNK0	0.209	
16	   C	138.314	132.948	144.955	C.2	1	UNK0	0.208	
17	   C	140.052	131.864	146.250	C.2	1	UNK0	0.362	
18	   C	141.123	129.786	146.940	C.3	1	UNK0	0.154	
19	   C	138.721	130.304	147.567	C.3	1	UNK0	0.154	
20	   O	138.990	132.690	146.214	O.2	1	UNK0	-0.302	
21	   O	141.087	132.179	145.697	O.co2	1	UNK0	-0.238	
22	   O	135.506	133.201	140.988	O.2	1	UNK0	-0.362	
23	   O	137.299	132.325	142.224	O.2	1	UNK0	-0.362	
24	   H	135.107	132.160	147.658	 H	1	UNK0	0.174	
25	   H	134.208	131.384	146.469	 H	1	UNK0	0.174	
26	   H	134.757	137.707	142.785	 H	1	UNK0	0.174	
27	   H	133.530	136.735	142.175	 H	1	UNK0	0.174	
28	   H	136.345	134.210	146.998	 H	1	UNK0	0.178	
29	   H	136.537	136.580	144.265	 H	1	UNK0	0.178	
30	   H	133.608	134.243	142.692	 H	1	UNK0	0.180	
31	   H	136.254	133.100	140.383	 H	1	UNK0	0.213	
32	   H	137.524	132.011	143.110	 H	1	UNK0	0.213	
@<TRIPOS>BOND
1 1 8 1
2 1 24 1
3 1 25 1
4 2 9 1
5 2 28 1
6 3 11 1
7 3 29 1
8 4 26 1
9 4 27 1
10 5 30 1
11 6 13 1
12 7 18 1
13 7 19 1
14 2 8 1
15 6 8 1
16 9 10 1
17 9 16 1
18 3 10 1
19 10 12 1
20 4 11 1
21 5 11 1
22 5 12 1
23 6 12 1
24 12 15 1
25 13 14 1
26 14 15 1
27 15 22 2
28 15 23 2
29 16 20 2
30 7 17 1
31 17 21 2
32 17 20 2
33 22 31 1
34 23 32 1
@<TRIPOS>SUBSTRUCTURE
1	UNK0	1	GROUP	1 ****	UNK
