MODEL 1
REMARK VINA RESULT:      -7.2      0.000      0.000
REMARK  5 active torsions:
REMARK  status: ('A' for Active; 'I' for Inactive)
REMARK    1  A    between atoms: C_6  and  C_7 
REMARK    2  A    between atoms: C_7  and  O_8 
REMARK    3  A    between atoms: O_8  and  C_9 
REMARK       I    between atoms: C_9  and  N_10 
REMARK    4  A    between atoms: C_25  and  O_26 
REMARK    5  A    between atoms: C_25  and  O_27 
ROOT
ATOM      1  N           0     134.865 132.052 146.725  0.00  0.00    -0.235 N 
ATOM      2  H           0     135.107 132.160 147.658  0.00  0.00     0.174 HD
ATOM      3  H           0     134.208 131.384 146.469  0.00  0.00     0.174 HD
ATOM      4  C           0     135.416 132.805 145.815  0.00  0.00     0.672 C 
ATOM      5  N           0     136.353 133.774 146.131  0.00  0.00    -0.218 N 
ATOM      6  C           0     137.350 134.124 145.125  0.00  0.00     0.151 C 
ATOM      7  C           0     136.735 134.449 143.778  0.00  0.00     0.180 C 
ATOM      8  N           0     136.152 135.807 143.824  0.00  0.00    -0.216 N 
ATOM      9  C           0     134.967 135.773 143.131  0.00  0.00     0.670 C 
ATOM     10  N           0     134.367 136.829 142.656  0.00  0.00    -0.235 N 
ATOM     11  H           0     134.757 137.707 142.785  0.00  0.00     0.174 HD
ATOM     12  H           0     133.530 136.735 142.175  0.00  0.00     0.174 HD
ATOM     13  C           0     135.560 133.560 143.402  0.00  0.00     0.217 C 
ATOM     14  N           0     134.494 134.491 143.000  0.00  0.00    -0.191 N 
ATOM     15  N           0     135.110 132.685 144.485  0.00  0.00    -0.183 N 
ATOM     16  C           0     134.317 131.630 143.830  0.00  0.00     0.150 C 
ATOM     17  C           0     135.080 131.337 142.516  0.00  0.00     0.093 C 
ATOM     18  C           0     135.901 132.621 142.233  0.00  0.00     0.209 C 
ATOM     19  H           0     136.345 134.210 146.998  0.00  0.00     0.178 HD
ATOM     20  H           0     136.537 136.580 144.265  0.00  0.00     0.178 HD
ATOM     21  H           0     133.608 134.243 142.692  0.00  0.00     0.180 HD
ENDROOT
BRANCH   6  22
ATOM     22  C           0     138.314 132.948 144.955  0.00  0.00     0.208 C 
BRANCH  22  23
ATOM     23  O           0     138.990 132.690 146.214  0.00  0.00    -0.302 OA
BRANCH  23  24
ATOM     24  C           0     140.052 131.864 146.250  0.00  0.00     0.362 C 
ATOM     25  N           0     139.968 130.685 146.900  0.00  0.00    -0.337 N 
ATOM     26  C           0     141.123 129.786 146.940  0.00  0.00     0.154 C 
ATOM     27  C           0     138.721 130.304 147.567  0.00  0.00     0.154 C 
ATOM     28  O           0     141.087 132.179 145.697  0.00  0.00    -0.238 OA
ENDBRANCH  23  24
ENDBRANCH  22  23
ENDBRANCH   6  22
BRANCH  18  29
ATOM     29  O           0     135.506 133.201 140.988  0.00  0.00    -0.362 OA
ATOM     30  H           0     136.254 133.100 140.383  0.00  0.00     0.213 HD
ENDBRANCH  18  29
BRANCH  18  31
ATOM     31  O           0     137.299 132.325 142.224  0.00  0.00    -0.362 OA
ATOM     32  H           0     137.524 132.011 143.110  0.00  0.00     0.213 HD
ENDBRANCH  18  31
TORSDOF 5
ENDMDL
MODEL 2
REMARK VINA RESULT:      -7.1      2.323      3.539
REMARK  5 active torsions:
REMARK  status: ('A' for Active; 'I' for Inactive)
REMARK    1  A    between atoms: C_6  and  C_7 
REMARK    2  A    between atoms: C_7  and  O_8 
REMARK    3  A    between atoms: O_8  and  C_9 
REMARK       I    between atoms: C_9  and  N_10 
REMARK    4  A    between atoms: C_25  and  O_26 
REMARK    5  A    between atoms: C_25  and  O_27 
ROOT
ATOM      1  N           0     137.634 134.654 142.650  0.00  0.00    -0.235 N 
ATOM      2  H           0     138.471 134.342 142.271  0.00  0.00     0.174 HD
ATOM      3  H           0     137.507 135.598 142.834  0.00  0.00     0.174 HD
ATOM      4  C           0     136.678 133.806 142.905  0.00  0.00     0.672 C 
ATOM      5  N           0     136.809 132.451 142.654  0.00  0.00    -0.218 N 
ATOM      6  C           0     136.049 131.518 143.480  0.00  0.00     0.151 C 
ATOM      7  C           0     134.576 131.868 143.555  0.00  0.00     0.180 C 
ATOM      8  N           0     133.914 131.458 142.298  0.00  0.00    -0.216 N 
ATOM      9  C           0     133.009 132.436 141.968  0.00  0.00     0.670 C 
ATOM     10  N           0     132.008 132.261 141.150  0.00  0.00    -0.235 N 
ATOM     11  H           0     131.868 131.397 140.734  0.00  0.00     0.174 HD
ATOM     12  H           0     131.404 132.996 140.960  0.00  0.00     0.174 HD
ATOM     13  C           0     134.296 133.360 143.645  0.00  0.00     0.217 C 
ATOM     14  N           0     133.287 133.620 142.605  0.00  0.00    -0.191 N 
ATOM     15  N           0     135.480 134.196 143.445  0.00  0.00    -0.183 N 
ATOM     16  C           0     135.125 135.515 143.999  0.00  0.00     0.150 C 
ATOM     17  C           0     134.293 135.188 145.262  0.00  0.00     0.093 C 
ATOM     18  C           0     133.742 133.760 145.022  0.00  0.00     0.209 C 
ATOM     19  H           0     137.390 132.130 141.946  0.00  0.00     0.178 HD
ATOM     20  H           0     134.089 130.646 141.798  0.00  0.00     0.178 HD
ATOM     21  H           0     132.884 134.480 142.406  0.00  0.00     0.180 HD
ENDROOT
BRANCH   6  22
ATOM     22  C           0     136.630 131.527 144.896  0.00  0.00     0.208 C 
BRANCH  22  23
ATOM     23  O           0     138.032 131.154 144.846  0.00  0.00    -0.302 OA
BRANCH  23  24
ATOM     24  C           0     138.968 131.990 145.334  0.00  0.00     0.362 C 
ATOM     25  N           0     139.572 131.714 146.508  0.00  0.00    -0.337 N 
ATOM     26  C           0     140.591 132.623 147.039  0.00  0.00     0.154 C 
ATOM     27  C           0     139.209 130.507 147.253  0.00  0.00     0.154 C 
ATOM     28  O           0     139.270 132.992 144.717  0.00  0.00    -0.238 OA
ENDBRANCH  23  24
ENDBRANCH  22  23
ENDBRANCH   6  22
BRANCH  18  29
ATOM     29  O           0     132.313 133.772 145.006  0.00  0.00    -0.362 OA
ATOM     30  H           0     132.023 133.723 145.928  0.00  0.00     0.213 HD
ENDBRANCH  18  29
BRANCH  18  31
ATOM     31  O           0     134.223 132.866 146.029  0.00  0.00    -0.362 OA
ATOM     32  H           0     133.808 133.133 146.860  0.00  0.00     0.213 HD
ENDBRANCH  18  31
TORSDOF 5
ENDMDL
MODEL 3
REMARK VINA RESULT:      -7.1      3.130      6.342
REMARK  5 active torsions:
REMARK  status: ('A' for Active; 'I' for Inactive)
REMARK    1  A    between atoms: C_6  and  C_7 
REMARK    2  A    between atoms: C_7  and  O_8 
REMARK    3  A    between atoms: O_8  and  C_9 
REMARK       I    between atoms: C_9  and  N_10 
REMARK    4  A    between atoms: C_25  and  O_26 
REMARK    5  A    between atoms: C_25  and  O_27 
ROOT
ATOM      1  N           0     137.711 135.306 143.249  0.00  0.00    -0.235 N 
ATOM      2  H           0     137.861 136.232 143.001  0.00  0.00     0.174 HD
ATOM      3  H           0     138.458 134.687 143.287  0.00  0.00     0.174 HD
ATOM      4  C           0     136.508 134.894 143.535  0.00  0.00     0.672 C 
ATOM      5  N           0     135.412 135.739 143.500  0.00  0.00    -0.218 N 
ATOM      6  C           0     134.104 135.162 143.210  0.00  0.00     0.151 C 
ATOM      7  C           0     133.782 133.969 144.087  0.00  0.00     0.180 C 
ATOM      8  N           0     133.390 134.446 145.431  0.00  0.00    -0.216 N 
ATOM      9  C           0     133.943 133.590 146.352  0.00  0.00     0.670 C 
ATOM     10  N           0     133.531 133.475 147.584  0.00  0.00    -0.235 N 
ATOM     11  H           0     132.789 134.014 147.899  0.00  0.00     0.174 HD
ATOM     12  H           0     133.966 132.849 148.184  0.00  0.00     0.174 HD
ATOM     13  C           0     134.968 133.057 144.355  0.00  0.00     0.217 C 
ATOM     14  N           0     134.982 132.871 145.815  0.00  0.00    -0.191 N 
ATOM     15  N           0     136.245 133.595 143.885  0.00  0.00    -0.183 N 
ATOM     16  C           0     137.155 132.437 143.815  0.00  0.00     0.150 C 
ATOM     17  C           0     136.265 131.283 143.293  0.00  0.00     0.093 C 
ATOM     18  C           0     134.817 131.696 143.656  0.00  0.00     0.209 C 
ATOM     19  H           0     135.512 136.691 143.666  0.00  0.00     0.178 HD
ATOM     20  H           0     132.843 135.222 145.627  0.00  0.00     0.178 HD
ATOM     21  H           0     135.614 132.330 146.314  0.00  0.00     0.180 HD
ENDROOT
BRANCH   6  22
ATOM     22  C           0     134.073 134.719 141.746  0.00  0.00     0.208 C 
BRANCH  22  23
ATOM     23  O           0     132.821 134.038 141.472  0.00  0.00    -0.302 OA
BRANCH  23  24
ATOM     24  C           0     132.479 133.742 140.204  0.00  0.00     0.362 C 
ATOM     25  N           0     131.365 133.024 139.956  0.00  0.00    -0.337 N 
ATOM     26  C           0     130.992 132.702 138.576  0.00  0.00     0.154 C 
ATOM     27  C           0     130.526 132.566 141.066  0.00  0.00     0.154 C 
ATOM     28  O           0     133.173 134.121 139.283  0.00  0.00    -0.238 OA
ENDBRANCH  23  24
ENDBRANCH  22  23
ENDBRANCH   6  22
BRANCH  18  29
ATOM     29  O           0     134.232 130.738 144.541  0.00  0.00    -0.362 OA
ATOM     30  H           0     134.812 129.964 144.538  0.00  0.00     0.213 HD
ENDBRANCH  18  29
BRANCH  18  31
ATOM     31  O           0     134.026 131.830 142.473  0.00  0.00    -0.362 OA
ATOM     32  H           0     133.120 131.598 142.714  0.00  0.00     0.213 HD
ENDBRANCH  18  31
TORSDOF 5
ENDMDL
MODEL 4
REMARK VINA RESULT:      -7.0      3.309      5.610
REMARK  5 active torsions:
REMARK  status: ('A' for Active; 'I' for Inactive)
REMARK    1  A    between atoms: C_6  and  C_7 
REMARK    2  A    between atoms: C_7  and  O_8 
REMARK    3  A    between atoms: O_8  and  C_9 
REMARK       I    between atoms: C_9  and  N_10 
REMARK    4  A    between atoms: C_25  and  O_26 
REMARK    5  A    between atoms: C_25  and  O_27 
ROOT
ATOM      1  N           0     134.008 136.023 142.249  0.00  0.00    -0.235 N 
ATOM      2  H           0     133.765 136.920 142.528  0.00  0.00     0.174 HD
ATOM      3  H           0     133.840 135.736 141.337  0.00  0.00     0.174 HD
ATOM      4  C           0     134.566 135.205 143.096  0.00  0.00     0.672 C 
ATOM      5  N           0     134.832 135.569 144.405  0.00  0.00    -0.218 N 
ATOM      6  C           0     134.851 134.523 145.423  0.00  0.00     0.151 C 
ATOM      7  C           0     135.736 133.352 145.043  0.00  0.00     0.180 C 
ATOM      8  N           0     137.152 133.726 145.252  0.00  0.00    -0.216 N 
ATOM      9  C           0     137.877 133.201 144.210  0.00  0.00     0.670 C 
ATOM     10  N           0     139.167 133.013 144.237  0.00  0.00    -0.235 N 
ATOM     11  H           0     139.674 133.250 145.029  0.00  0.00     0.174 HD
ATOM     12  H           0     139.618 132.637 143.465  0.00  0.00     0.174 HD
ATOM     13  C           0     135.671 132.975 143.572  0.00  0.00     0.217 C 
ATOM     14  N           0     137.075 132.897 143.137  0.00  0.00    -0.191 N 
ATOM     15  N           0     134.922 133.927 142.751  0.00  0.00    -0.183 N 
ATOM     16  C           0     134.588 133.198 141.514  0.00  0.00     0.150 C 
ATOM     17  C           0     134.258 131.763 141.993  0.00  0.00     0.093 C 
ATOM     18  C           0     134.981 131.618 143.356  0.00  0.00     0.209 C 
ATOM     19  H           0     135.003 136.495 144.639  0.00  0.00     0.178 HD
ATOM     20  H           0     137.504 134.248 145.989  0.00  0.00     0.178 HD
ATOM     21  H           0     137.383 132.667 142.246  0.00  0.00     0.180 HD
ENDROOT
BRANCH   6  22
ATOM     22  C           0     133.424 134.012 145.633  0.00  0.00     0.208 C 
BRANCH  22  23
ATOM     23  O           0     132.617 135.062 146.229  0.00  0.00    -0.302 OA
BRANCH  23  24
ATOM     24  C           0     132.707 135.311 147.549  0.00  0.00     0.362 C 
ATOM     25  N           0     132.447 136.547 148.021  0.00  0.00    -0.337 N 
ATOM     26  C           0     132.544 136.819 149.457  0.00  0.00     0.154 C 
ATOM     27  C           0     132.068 137.619 147.097  0.00  0.00     0.154 C 
ATOM     28  O           0     133.021 134.423 148.316  0.00  0.00    -0.238 OA
ENDBRANCH  23  24
ENDBRANCH  22  23
ENDBRANCH   6  22
BRANCH  18  29
ATOM     29  O           0     135.947 130.566 143.299  0.00  0.00    -0.362 OA
ATOM     30  H           0     136.410 130.658 142.456  0.00  0.00     0.213 HD
ENDBRANCH  18  29
BRANCH  18  31
ATOM     31  O           0     134.033 131.371 144.397  0.00  0.00    -0.362 OA
ATOM     32  H           0     134.532 131.042 145.157  0.00  0.00     0.213 HD
ENDBRANCH  18  31
TORSDOF 5
ENDMDL
MODEL 5
REMARK VINA RESULT:      -6.9      2.906      4.117
REMARK  5 active torsions:
REMARK  status: ('A' for Active; 'I' for Inactive)
REMARK    1  A    between atoms: C_6  and  C_7 
REMARK    2  A    between atoms: C_7  and  O_8 
REMARK    3  A    between atoms: O_8  and  C_9 
REMARK       I    between atoms: C_9  and  N_10 
REMARK    4  A    between atoms: C_25  and  O_26 
REMARK    5  A    between atoms: C_25  and  O_27 
ROOT
ATOM      1  N           0     137.653 134.449 142.466  0.00  0.00    -0.235 N 
ATOM      2  H           0     138.457 134.099 142.052  0.00  0.00     0.174 HD
ATOM      3  H           0     137.582 135.397 142.663  0.00  0.00     0.174 HD
ATOM      4  C           0     136.666 133.648 142.754  0.00  0.00     0.672 C 
ATOM      5  N           0     136.717 132.291 142.487  0.00  0.00    -0.218 N 
ATOM      6  C           0     135.944 131.390 143.336  0.00  0.00     0.151 C 
ATOM      7  C           0     134.495 131.814 143.474  0.00  0.00     0.180 C 
ATOM      8  N           0     133.763 131.450 142.242  0.00  0.00    -0.216 N 
ATOM      9  C           0     132.896 132.477 141.956  0.00  0.00     0.670 C 
ATOM     10  N           0     131.855 132.362 141.179  0.00  0.00    -0.235 N 
ATOM     11  H           0     131.655 131.510 140.761  0.00  0.00     0.174 HD
ATOM     12  H           0     131.283 133.128 141.019  0.00  0.00     0.174 HD
ATOM     13  C           0     134.296 133.317 143.586  0.00  0.00     0.217 C 
ATOM     14  N           0     133.260 133.639 142.591  0.00  0.00    -0.191 N 
ATOM     15  N           0     135.512 134.094 143.345  0.00  0.00    -0.183 N 
ATOM     16  C           0     135.247 135.424 143.923  0.00  0.00     0.150 C 
ATOM     17  C           0     134.451 135.127 145.217  0.00  0.00     0.093 C 
ATOM     18  C           0     133.819 133.731 144.989  0.00  0.00     0.209 C 
ATOM     19  H           0     137.252 131.948 141.754  0.00  0.00     0.178 HD
ATOM     20  H           0     133.875 130.636 141.728  0.00  0.00     0.178 HD
ATOM     21  H           0     132.895 134.520 142.415  0.00  0.00     0.180 HD
ENDROOT
BRANCH   6  22
ATOM     22  C           0     136.580 131.355 144.727  0.00  0.00     0.208 C 
BRANCH  22  23
ATOM     23  O           0     135.839 130.440 145.576  0.00  0.00    -0.302 OA
BRANCH  23  24
ATOM     24  C           0     136.379 130.005 146.730  0.00  0.00     0.362 C 
ATOM     25  N           0     135.753 129.053 147.450  0.00  0.00    -0.337 N 
ATOM     26  C           0     136.340 128.578 148.706  0.00  0.00     0.154 C 
ATOM     27  C           0     134.484 128.492 146.979  0.00  0.00     0.154 C 
ATOM     28  O           0     137.431 130.469 147.122  0.00  0.00    -0.238 OA
ENDBRANCH  23  24
ENDBRANCH  22  23
ENDBRANCH   6  22
BRANCH  18  29
ATOM     29  O           0     132.393 133.816 145.031  0.00  0.00    -0.362 OA
ATOM     30  H           0     132.174 134.742 145.202  0.00  0.00     0.213 HD
ENDBRANCH  18  29
BRANCH  18  31
ATOM     31  O           0     134.293 132.804 145.968  0.00  0.00    -0.362 OA
ATOM     32  H           0     134.890 132.196 145.512  0.00  0.00     0.213 HD
ENDBRANCH  18  31
TORSDOF 5
ENDMDL
MODEL 6
REMARK VINA RESULT:      -6.9      3.239      5.194
REMARK  5 active torsions:
REMARK  status: ('A' for Active; 'I' for Inactive)
REMARK    1  A    between atoms: C_6  and  C_7 
REMARK    2  A    between atoms: C_7  and  O_8 
REMARK    3  A    between atoms: O_8  and  C_9 
REMARK       I    between atoms: C_9  and  N_10 
REMARK    4  A    between atoms: C_25  and  O_26 
REMARK    5  A    between atoms: C_25  and  O_27 
ROOT
ATOM      1  N           0     134.771 130.930 145.374  0.00  0.00    -0.235 N 
ATOM      2  H           0     133.945 130.675 145.815  0.00  0.00     0.174 HD
ATOM      3  H           0     135.564 130.381 145.474  0.00  0.00     0.174 HD
ATOM      4  C           0     134.813 132.009 144.644  0.00  0.00     0.672 C 
ATOM      5  N           0     133.707 132.822 144.465  0.00  0.00    -0.218 N 
ATOM      6  C           0     133.928 134.242 144.208  0.00  0.00     0.151 C 
ATOM      7  C           0     134.910 134.487 143.080  0.00  0.00     0.180 C 
ATOM      8  N           0     134.234 134.249 141.786  0.00  0.00    -0.216 N 
ATOM      9  C           0     135.128 133.610 140.962  0.00  0.00     0.670 C 
ATOM     10  N           0     135.023 133.566 139.663  0.00  0.00    -0.235 N 
ATOM     11  H           0     134.278 134.001 139.222  0.00  0.00     0.174 HD
ATOM     12  H           0     135.692 133.096 139.139  0.00  0.00     0.174 HD
ATOM     13  C           0     136.086 133.522 143.059  0.00  0.00     0.217 C 
ATOM     14  N           0     136.146 133.026 141.675  0.00  0.00    -0.191 N 
ATOM     15  N           0     135.957 132.415 144.007  0.00  0.00    -0.183 N 
ATOM     16  C           0     137.321 131.878 144.167  0.00  0.00     0.150 C 
ATOM     17  C           0     138.229 133.132 144.161  0.00  0.00     0.093 C 
ATOM     18  C           0     137.407 134.219 143.422  0.00  0.00     0.209 C 
ATOM     19  H           0     132.809 132.458 144.510  0.00  0.00     0.178 HD
ATOM     20  H           0     133.325 134.498 141.561  0.00  0.00     0.178 HD
ATOM     21  H           0     136.795 132.396 141.324  0.00  0.00     0.180 HD
ENDROOT
BRANCH   6  22
ATOM     22  C           0     134.467 134.897 145.481  0.00  0.00     0.208 C 
BRANCH  22  23
ATOM     23  O           0     133.362 135.433 146.255  0.00  0.00    -0.302 OA
BRANCH  23  24
ATOM     24  C           0     133.484 135.582 147.588  0.00  0.00     0.362 C 
ATOM     25  N           0     132.686 136.448 148.245  0.00  0.00    -0.337 N 
ATOM     26  C           0     132.818 136.610 149.695  0.00  0.00     0.154 C 
ATOM     27  C           0     131.687 137.227 147.509  0.00  0.00     0.154 C 
ATOM     28  O           0     134.312 134.937 148.198  0.00  0.00    -0.238 OA
ENDBRANCH  23  24
ENDBRANCH  22  23
ENDBRANCH   6  22
BRANCH  18  29
ATOM     29  O           0     138.092 134.646 142.243  0.00  0.00    -0.362 OA
ATOM     30  H           0     137.814 134.055 141.530  0.00  0.00     0.213 HD
ENDBRANCH  18  29
BRANCH  18  31
ATOM     31  O           0     137.162 135.330 144.287  0.00  0.00    -0.362 OA
ATOM     32  H           0     137.967 135.465 144.804  0.00  0.00     0.213 HD
ENDBRANCH  18  31
TORSDOF 5
ENDMDL
MODEL 7
REMARK VINA RESULT:      -6.9      3.307      5.483
REMARK  5 active torsions:
REMARK  status: ('A' for Active; 'I' for Inactive)
REMARK    1  A    between atoms: C_6  and  C_7 
REMARK    2  A    between atoms: C_7  and  O_8 
REMARK    3  A    between atoms: O_8  and  C_9 
REMARK       I    between atoms: C_9  and  N_10 
REMARK    4  A    between atoms: C_25  and  O_26 
REMARK    5  A    between atoms: C_25  and  O_27 
ROOT
ATOM      1  N           0     132.827 132.780 141.760  0.00  0.00    -0.235 N 
ATOM      2  H           0     132.137 133.314 141.334  0.00  0.00     0.174 HD
ATOM      3  H           0     132.886 131.829 141.578  0.00  0.00     0.174 HD
ATOM      4  C           0     133.678 133.342 142.572  0.00  0.00     0.672 C 
ATOM      5  N           0     133.639 134.696 142.859  0.00  0.00    -0.218 N 
ATOM      6  C           0     134.138 135.142 144.156  0.00  0.00     0.151 C 
ATOM      7  C           0     135.523 134.609 144.465  0.00  0.00     0.180 C 
ATOM      8  N           0     136.524 135.381 143.696  0.00  0.00    -0.216 N 
ATOM      9  C           0     137.475 134.497 143.250  0.00  0.00     0.670 C 
ATOM     10  N           0     138.671 134.843 142.862  0.00  0.00    -0.235 N 
ATOM     11  H           0     138.934 135.776 142.877  0.00  0.00     0.174 HD
ATOM     12  H           0     139.297 134.167 142.558  0.00  0.00     0.174 HD
ATOM     13  C           0     135.750 133.173 144.020  0.00  0.00     0.217 C 
ATOM     14  N           0     137.013 133.204 143.265  0.00  0.00    -0.191 N 
ATOM     15  N           0     134.665 132.630 143.202  0.00  0.00    -0.183 N 
ATOM     16  C           0     134.832 131.166 143.254  0.00  0.00     0.150 C 
ATOM     17  C           0     135.268 130.882 144.712  0.00  0.00     0.093 C 
ATOM     18  C           0     135.879 132.214 145.215  0.00  0.00     0.209 C 
ATOM     19  H           0     133.289 135.331 142.214  0.00  0.00     0.178 HD
ATOM     20  H           0     136.509 136.337 143.535  0.00  0.00     0.178 HD
ATOM     21  H           0     137.447 132.442 142.850  0.00  0.00     0.180 HD
ENDROOT
BRANCH   6  22
ATOM     22  C           0     133.174 134.669 145.246  0.00  0.00     0.208 C 
BRANCH  22  23
ATOM     23  O           0     132.855 135.779 146.125  0.00  0.00    -0.302 OA
BRANCH  23  24
ATOM     24  C           0     133.219 135.736 147.421  0.00  0.00     0.362 C 
ATOM     25  N           0     132.525 136.439 148.339  0.00  0.00    -0.337 N 
ATOM     26  C           0     132.919 136.393 149.749  0.00  0.00     0.154 C 
ATOM     27  C           0     131.377 137.250 147.926  0.00  0.00     0.154 C 
ATOM     28  O           0     134.170 135.064 147.764  0.00  0.00    -0.238 OA
ENDBRANCH  23  24
ENDBRANCH  22  23
ENDBRANCH   6  22
BRANCH  18  29
ATOM     29  O           0     137.252 132.032 145.568  0.00  0.00    -0.362 OA
ATOM     30  H           0     137.756 132.045 144.742  0.00  0.00     0.213 HD
ENDBRANCH  18  29
BRANCH  18  31
ATOM     31  O           0     135.139 132.711 146.333  0.00  0.00    -0.362 OA
ATOM     32  H           0     134.412 133.238 145.975  0.00  0.00     0.213 HD
ENDBRANCH  18  31
TORSDOF 5
ENDMDL
MODEL 8
REMARK VINA RESULT:      -6.6      2.655      3.381
REMARK  5 active torsions:
REMARK  status: ('A' for Active; 'I' for Inactive)
REMARK    1  A    between atoms: C_6  and  C_7 
REMARK    2  A    between atoms: C_7  and  O_8 
REMARK    3  A    between atoms: O_8  and  C_9 
REMARK       I    between atoms: C_9  and  N_10 
REMARK    4  A    between atoms: C_25  and  O_26 
REMARK    5  A    between atoms: C_25  and  O_27 
ROOT
ATOM      1  N           0     134.091 131.005 143.320  0.00  0.00    -0.235 N 
ATOM      2  H           0     133.367 130.490 143.708  0.00  0.00     0.174 HD
ATOM      3  H           0     134.586 130.653 142.562  0.00  0.00     0.174 HD
ATOM      4  C           0     134.397 132.173 143.811  0.00  0.00     0.672 C 
ATOM      5  N           0     133.718 132.721 144.885  0.00  0.00    -0.218 N 
ATOM      6  C           0     134.435 133.647 145.756  0.00  0.00     0.151 C 
ATOM      7  C           0     135.126 134.757 144.988  0.00  0.00     0.180 C 
ATOM      8  N           0     134.122 135.760 144.573  0.00  0.00    -0.216 N 
ATOM      9  C           0     134.445 136.167 143.302  0.00  0.00     0.670 C 
ATOM     10  N           0     134.021 137.275 142.758  0.00  0.00    -0.235 N 
ATOM     11  H           0     133.439 137.868 143.258  0.00  0.00     0.174 HD
ATOM     12  H           0     134.288 137.504 141.854  0.00  0.00     0.174 HD
ATOM     13  C           0     135.756 134.307 143.679  0.00  0.00     0.217 C 
ATOM     14  N           0     135.270 135.267 142.675  0.00  0.00    -0.191 N 
ATOM     15  N           0     135.416 132.935 143.301  0.00  0.00    -0.183 N 
ATOM     16  C           0     136.431 132.541 142.307  0.00  0.00     0.150 C 
ATOM     17  C           0     137.744 133.172 142.831  0.00  0.00     0.093 C 
ATOM     18  C           0     137.292 134.345 143.738  0.00  0.00     0.209 C 
ATOM     19  H           0     132.789 132.496 145.054  0.00  0.00     0.178 HD
ATOM     20  H           0     133.371 136.071 145.101  0.00  0.00     0.178 HD
ATOM     21  H           0     135.496 135.266 141.731  0.00  0.00     0.180 HD
ENDROOT
BRANCH   6  22
ATOM     22  C           0     135.486 132.867 146.548  0.00  0.00     0.208 C 
BRANCH  22  23
ATOM     23  O           0     134.834 131.831 147.328  0.00  0.00    -0.302 OA
BRANCH  23  24
ATOM     24  C           0     135.360 130.593 147.375  0.00  0.00     0.362 C 
ATOM     25  N           0     135.524 129.974 148.562  0.00  0.00    -0.337 N 
ATOM     26  C           0     136.096 128.627 148.613  0.00  0.00     0.154 C 
ATOM     27  C           0     135.130 130.650 149.800  0.00  0.00     0.154 C 
ATOM     28  O           0     135.687 130.032 146.348  0.00  0.00    -0.238 OA
ENDBRANCH  23  24
ENDBRANCH  22  23
ENDBRANCH   6  22
BRANCH  18  29
ATOM     29  O           0     137.785 135.587 143.230  0.00  0.00    -0.362 OA
ATOM     30  H           0     138.720 135.451 143.021  0.00  0.00     0.213 HD
ENDBRANCH  18  29
BRANCH  18  31
ATOM     31  O           0     137.744 134.139 145.079  0.00  0.00    -0.362 OA
ATOM     32  H           0     138.014 135.003 145.418  0.00  0.00     0.213 HD
ENDBRANCH  18  31
TORSDOF 5
ENDMDL
MODEL 9
REMARK VINA RESULT:      -6.5      2.363      6.130
REMARK  5 active torsions:
REMARK  status: ('A' for Active; 'I' for Inactive)
REMARK    1  A    between atoms: C_6  and  C_7 
REMARK    2  A    between atoms: C_7  and  O_8 
REMARK    3  A    between atoms: O_8  and  C_9 
REMARK       I    between atoms: C_9  and  N_10 
REMARK    4  A    between atoms: C_25  and  O_26 
REMARK    5  A    between atoms: C_25  and  O_27 
ROOT
ATOM      1  N           0     135.114 134.801 147.446  0.00  0.00    -0.235 N 
ATOM      2  H           0     134.311 135.336 147.348  0.00  0.00     0.174 HD
ATOM      3  H           0     135.829 135.101 148.030  0.00  0.00     0.174 HD
ATOM      4  C           0     135.231 133.676 146.798  0.00  0.00     0.672 C 
ATOM      5  N           0     134.237 133.202 145.959  0.00  0.00    -0.218 N 
ATOM      6  C           0     134.626 132.351 144.839  0.00  0.00     0.151 C 
ATOM      7  C           0     135.511 131.195 145.263  0.00  0.00     0.180 C 
ATOM      8  N           0     134.677 130.153 145.901  0.00  0.00    -0.216 N 
ATOM      9  C           0     135.382 129.655 146.970  0.00  0.00     0.670 C 
ATOM     10  N           0     135.138 128.507 147.537  0.00  0.00    -0.235 N 
ATOM     11  H           0     134.419 127.947 147.206  0.00  0.00     0.174 HD
ATOM     12  H           0     135.676 128.214 148.289  0.00  0.00     0.174 HD
ATOM     13  C           0     136.531 131.552 146.332  0.00  0.00     0.217 C 
ATOM     14  N           0     136.377 130.515 147.365  0.00  0.00    -0.191 N 
ATOM     15  N           0     136.348 132.888 146.900  0.00  0.00    -0.183 N 
ATOM     16  C           0     137.632 133.217 147.544  0.00  0.00     0.150 C 
ATOM     17  C           0     138.701 132.641 146.584  0.00  0.00     0.093 C 
ATOM     18  C           0     137.968 131.534 145.784  0.00  0.00     0.209 C 
ATOM     19  H           0     133.306 133.430 146.112  0.00  0.00     0.178 HD
ATOM     20  H           0     133.793 129.874 145.618  0.00  0.00     0.178 HD
ATOM     21  H           0     136.891 130.449 148.185  0.00  0.00     0.180 HD
ENDROOT
BRANCH   6  22
ATOM     22  C           0     135.382 133.198 143.814  0.00  0.00     0.208 C 
BRANCH  22  23
ATOM     23  O           0     135.243 132.602 142.497  0.00  0.00    -0.302 OA
BRANCH  23  24
ATOM     24  C           0     134.022 132.274 142.033  0.00  0.00     0.362 C 
ATOM     25  N           0     133.254 133.207 141.436  0.00  0.00    -0.337 N 
ATOM     26  C           0     131.926 132.851 140.930  0.00  0.00     0.154 C 
ATOM     27  C           0     133.747 134.580 141.294  0.00  0.00     0.154 C 
ATOM     28  O           0     133.613 131.136 142.150  0.00  0.00    -0.238 OA
ENDBRANCH  23  24
ENDBRANCH  22  23
ENDBRANCH   6  22
BRANCH  18  29
ATOM     29  O           0     138.579 130.263 146.016  0.00  0.00    -0.362 OA
ATOM     30  H           0     138.112 129.624 145.460  0.00  0.00     0.213 HD
ENDBRANCH  18  29
BRANCH  18  31
ATOM     31  O           0     137.972 131.844 144.389  0.00  0.00    -0.362 OA
ATOM     32  H           0     138.103 131.010 143.918  0.00  0.00     0.213 HD
ENDBRANCH  18  31
TORSDOF 5
ENDMDL
