# created with PyMOL 2.3.4
@<TRIPOS>MOLECULE
ligand_out_0001
46 49 1                 
SMALL
USER_CHARGES
@<TRIPOS>ATOM
1	   N	130.984	133.153	136.558	N.3	1	UNK0	-0.235	
2	   N	130.713	134.817	134.918	N.3	1	UNK0	-0.218	
3	   N	129.218	134.670	132.228	N.3	1	UNK0	-0.216	
4	   N	127.359	133.450	131.421	N.3	1	UNK0	-0.235	
5	   N	129.171	132.421	132.540	N.3	1	UNK0	-0.191	
6	   N	130.827	132.573	134.296	N.3	1	UNK0	-0.183	
7	   N	133.549	135.736	136.948	N.pl3	1	UNK0	-0.335	
8	   N	133.644	134.248	140.340	N.pl3	1	UNK0	-0.359	
9	   N	134.967	132.775	143.397	N.pl3	1	UNK0	-0.288	
10	   C	130.846	133.496	135.309	C.3	1	UNK0	0.672	
11	   C	131.177	135.195	133.587	C.3	1	UNK0	0.151	
12	   C	130.623	134.297	132.497	C.3	1	UNK0	0.180	
13	   C	128.512	133.509	132.026	C.3	1	UNK0	0.670	
14	   C	130.543	132.828	132.884	C.3	1	UNK0	0.217	
15	   C	131.143	131.135	134.376	C.3	1	UNK0	0.150	
16	   C	131.956	130.849	133.091	C.3	1	UNK0	0.093	
17	   C	131.554	131.973	132.102	C.3	1	UNK0	0.209	
18	   C	132.705	135.120	133.556	C.2	1	UNK0	0.208	
19	   C	133.822	135.310	135.700	C.2	1	UNK0	0.360	
20	   C	134.170	135.077	138.099	C.3	1	UNK0	0.144	
21	   C	133.270	135.238	139.327	C.3	1	UNK0	0.142	
22	   C	132.718	133.397	140.823	C.2	1	UNK0	0.219	
23	   C	133.102	132.377	141.865	C.3	1	UNK0	0.123	
24	   C	134.622	132.365	142.033	C.3	1	UNK0	0.144	
25	   C	135.072	131.904	144.409	C.2	1	UNK0	0.226	
26	   C	135.443	132.652	145.671	C.3	1	UNK0	0.112	
27	   C	135.524	134.121	145.210	C.3	1	UNK0	0.112	
28	   C	135.197	134.049	143.735	C.2	1	UNK0	0.226	
29	   O	133.250	135.916	134.641	O.2	1	UNK0	-0.302	
30	   O	134.583	134.378	135.528	O.co2	1	UNK0	-0.239	
31	   O	131.575	133.450	140.419	O.2	1	UNK0	-0.274	
32	   O	134.904	130.707	144.326	O.2	1	UNK0	-0.273	
33	   O	135.150	134.995	142.978	O.2	1	UNK0	-0.273	
34	   O	130.946	131.415	130.935	O.2	1	UNK0	-0.362	
35	   O	132.696	132.754	131.745	O.2	1	UNK0	-0.362	
36	   H	130.997	133.834	137.250	 H	1	UNK0	0.174	
37	   H	131.071	132.217	136.797	 H	1	UNK0	0.174	
38	   H	126.948	134.260	131.080	 H	1	UNK0	0.174	
39	   H	126.913	132.595	131.311	 H	1	UNK0	0.174	
40	   H	130.320	135.475	135.514	 H	1	UNK0	0.178	
41	   H	128.859	135.571	132.199	 H	1	UNK0	0.178	
42	   H	128.797	131.533	132.654	 H	1	UNK0	0.180	
43	   H	132.941	136.480	137.085	 H	1	UNK0	0.164	
44	   H	134.558	134.205	140.663	 H	1	UNK0	0.162	
45	   H	130.307	132.065	130.615	 H	1	UNK0	0.213	
46	   H	133.295	132.738	132.505	 H	1	UNK0	0.213	
@<TRIPOS>BOND
1 1 10 1
2 1 36 1
3 1 37 1
4 2 11 1
5 2 40 1
6 3 13 1
7 3 41 1
8 4 38 1
9 4 39 1
10 5 42 1
11 6 15 1
12 7 20 1
13 7 43 1
14 8 22 1
15 8 44 1
16 9 25 1
17 9 28 1
18 2 10 1
19 6 10 1
20 11 12 1
21 11 18 1
22 3 12 1
23 12 14 1
24 4 13 1
25 5 13 1
26 5 14 1
27 6 14 1
28 14 17 1
29 15 16 1
30 16 17 1
31 17 34 2
32 17 35 2
33 18 29 2
34 7 19 1
35 19 30 2
36 20 21 1
37 8 21 1
38 22 23 1
39 22 31 2
40 23 24 1
41 9 24 1
42 25 26 1
43 25 32 2
44 26 27 1
45 27 28 1
46 28 33 2
47 19 29 2
48 34 45 1
49 35 46 1
@<TRIPOS>SUBSTRUCTURE
1	UNK0	1	GROUP	1 ****	UNK
