MODEL 1
REMARK VINA RESULT:      -8.4      0.000      0.000
REMARK  11 active torsions:
REMARK  status: ('A' for Active; 'I' for Inactive)
REMARK    1  A    between atoms: C_6  and  C_7 
REMARK    2  A    between atoms: C_7  and  O_8 
REMARK    3  A    between atoms: O_8  and  C_9 
REMARK       I    between atoms: C_9  and  N_10 
REMARK    4  A    between atoms: N_10  and  C_11 
REMARK    5  A    between atoms: C_11  and  C_12 
REMARK    6  A    between atoms: C_12  and  N_13 
REMARK       I    between atoms: N_13  and  C_14 
REMARK    7  A    between atoms: C_14  and  C_15 
REMARK    8  A    between atoms: C_15  and  C_16 
REMARK    9  A    between atoms: C_16  and  N_17 
REMARK   10  A    between atoms: C_37  and  O_38 
REMARK   11  A    between atoms: C_37  and  O_39 
ROOT
ATOM      1  N           0     130.984 133.153 136.558  0.00  0.00    -0.235 N 
ATOM      2  H           0     130.997 133.834 137.250  0.00  0.00     0.174 HD
ATOM      3  H           0     131.071 132.217 136.797  0.00  0.00     0.174 HD
ATOM      4  C           0     130.846 133.496 135.309  0.00  0.00     0.672 C 
ATOM      5  N           0     130.713 134.817 134.918  0.00  0.00    -0.218 N 
ATOM      6  C           0     131.177 135.195 133.587  0.00  0.00     0.151 C 
ATOM      7  C           0     130.623 134.297 132.497  0.00  0.00     0.180 C 
ATOM      8  N           0     129.218 134.670 132.228  0.00  0.00    -0.216 N 
ATOM      9  C           0     128.512 133.509 132.026  0.00  0.00     0.670 C 
ATOM     10  N           0     127.359 133.450 131.421  0.00  0.00    -0.235 N 
ATOM     11  H           0     126.948 134.260 131.080  0.00  0.00     0.174 HD
ATOM     12  H           0     126.913 132.595 131.311  0.00  0.00     0.174 HD
ATOM     13  C           0     130.543 132.828 132.884  0.00  0.00     0.217 C 
ATOM     14  N           0     129.171 132.421 132.540  0.00  0.00    -0.191 N 
ATOM     15  N           0     130.827 132.573 134.296  0.00  0.00    -0.183 N 
ATOM     16  C           0     131.143 131.135 134.376  0.00  0.00     0.150 C 
ATOM     17  C           0     131.956 130.849 133.091  0.00  0.00     0.093 C 
ATOM     18  C           0     131.554 131.973 132.102  0.00  0.00     0.209 C 
ATOM     19  H           0     130.320 135.475 135.514  0.00  0.00     0.178 HD
ATOM     20  H           0     128.859 135.571 132.199  0.00  0.00     0.178 HD
ATOM     21  H           0     128.797 131.533 132.654  0.00  0.00     0.180 HD
ENDROOT
BRANCH   6  22
ATOM     22  C           0     132.705 135.120 133.556  0.00  0.00     0.208 C 
BRANCH  22  23
ATOM     23  O           0     133.250 135.916 134.641  0.00  0.00    -0.302 OA
BRANCH  23  24
ATOM     24  C           0     133.822 135.310 135.700  0.00  0.00     0.360 C 
ATOM     25  N           0     133.549 135.736 136.948  0.00  0.00    -0.335 N 
ATOM     26  H           0     132.941 136.480 137.085  0.00  0.00     0.164 HD
ATOM     27  O           0     134.583 134.378 135.528  0.00  0.00    -0.239 OA
BRANCH  25  28
ATOM     28  C           0     134.170 135.077 138.099  0.00  0.00     0.144 C 
BRANCH  28  29
ATOM     29  C           0     133.270 135.238 139.327  0.00  0.00     0.142 C 
BRANCH  29  30
ATOM     30  N           0     133.644 134.248 140.340  0.00  0.00    -0.359 N 
ATOM     31  C           0     132.718 133.397 140.823  0.00  0.00     0.219 C 
ATOM     32  O           0     131.575 133.450 140.419  0.00  0.00    -0.274 OA
ATOM     33  H           0     134.558 134.205 140.663  0.00  0.00     0.162 HD
BRANCH  31  34
ATOM     34  C           0     133.102 132.377 141.865  0.00  0.00     0.123 C 
BRANCH  34  35
ATOM     35  C           0     134.622 132.365 142.033  0.00  0.00     0.144 C 
BRANCH  35  36
ATOM     36  N           0     134.967 132.775 143.397  0.00  0.00    -0.288 N 
ATOM     37  C           0     135.072 131.904 144.409  0.00  0.00     0.226 A 
ATOM     38  C           0     135.443 132.652 145.671  0.00  0.00     0.112 A 
ATOM     39  O           0     134.904 130.707 144.326  0.00  0.00    -0.273 OA
ATOM     40  C           0     135.524 134.121 145.210  0.00  0.00     0.112 A 
ATOM     41  C           0     135.197 134.049 143.735  0.00  0.00     0.226 A 
ATOM     42  O           0     135.150 134.995 142.978  0.00  0.00    -0.273 OA
ENDBRANCH  35  36
ENDBRANCH  34  35
ENDBRANCH  31  34
ENDBRANCH  29  30
ENDBRANCH  28  29
ENDBRANCH  25  28
ENDBRANCH  23  24
ENDBRANCH  22  23
ENDBRANCH   6  22
BRANCH  18  43
ATOM     43  O           0     130.946 131.415 130.935  0.00  0.00    -0.362 OA
ATOM     44  H           0     130.307 132.065 130.615  0.00  0.00     0.213 HD
ENDBRANCH  18  43
BRANCH  18  45
ATOM     45  O           0     132.696 132.754 131.745  0.00  0.00    -0.362 OA
ATOM     46  H           0     133.295 132.738 132.505  0.00  0.00     0.213 HD
ENDBRANCH  18  45
TORSDOF 11
ENDMDL
MODEL 2
REMARK VINA RESULT:      -8.4      2.063     10.880
REMARK  11 active torsions:
REMARK  status: ('A' for Active; 'I' for Inactive)
REMARK    1  A    between atoms: C_6  and  C_7 
REMARK    2  A    between atoms: C_7  and  O_8 
REMARK    3  A    between atoms: O_8  and  C_9 
REMARK       I    between atoms: C_9  and  N_10 
REMARK    4  A    between atoms: N_10  and  C_11 
REMARK    5  A    between atoms: C_11  and  C_12 
REMARK    6  A    between atoms: C_12  and  N_13 
REMARK       I    between atoms: N_13  and  C_14 
REMARK    7  A    between atoms: C_14  and  C_15 
REMARK    8  A    between atoms: C_15  and  C_16 
REMARK    9  A    between atoms: C_16  and  N_17 
REMARK   10  A    between atoms: C_37  and  O_38 
REMARK   11  A    between atoms: C_37  and  O_39 
ROOT
ATOM      1  N           0     135.404 136.115 143.161  0.00  0.00    -0.235 N 
ATOM      2  H           0     134.605 136.598 142.897  0.00  0.00     0.174 HD
ATOM      3  H           0     136.275 136.533 143.071  0.00  0.00     0.174 HD
ATOM      4  C           0     135.307 134.908 143.642  0.00  0.00     0.672 C 
ATOM      5  N           0     134.087 134.272 143.795  0.00  0.00    -0.218 N 
ATOM      6  C           0     134.054 132.814 143.724  0.00  0.00     0.151 C 
ATOM      7  C           0     135.073 132.160 144.637  0.00  0.00     0.180 C 
ATOM      8  N           0     134.579 132.208 146.030  0.00  0.00    -0.216 N 
ATOM      9  C           0     135.653 132.485 146.841  0.00  0.00     0.670 C 
ATOM     10  N           0     135.681 132.252 148.123  0.00  0.00    -0.235 N 
ATOM     11  H           0     134.910 131.858 148.561  0.00  0.00     0.174 HD
ATOM     12  H           0     136.473 132.472 148.639  0.00  0.00     0.174 HD
ATOM     13  C           0     136.408 132.885 144.698  0.00  0.00     0.217 C 
ATOM     14  N           0     136.692 133.037 146.134  0.00  0.00    -0.191 N 
ATOM     15  N           0     136.406 134.184 144.024  0.00  0.00    -0.183 N 
ATOM     16  C           0     137.826 134.508 143.797  0.00  0.00     0.150 C 
ATOM     17  C           0     138.474 133.152 143.424  0.00  0.00     0.093 C 
ATOM     18  C           0     137.532 132.078 144.026  0.00  0.00     0.209 C 
ATOM     19  H           0     133.276 134.782 143.947  0.00  0.00     0.178 HD
ATOM     20  H           0     133.664 132.070 146.319  0.00  0.00     0.178 HD
ATOM     21  H           0     137.480 133.454 146.517  0.00  0.00     0.180 HD
ENDROOT
BRANCH   6  22
ATOM     22  C           0     134.336 132.383 142.283  0.00  0.00     0.208 C 
BRANCH  22  23
ATOM     23  O           0     133.085 132.289 141.553  0.00  0.00    -0.302 OA
BRANCH  23  24
ATOM     24  C           0     132.708 133.290 140.733  0.00  0.00     0.360 C 
ATOM     25  N           0     133.594 134.241 140.380  0.00  0.00    -0.335 N 
ATOM     26  H           0     134.503 134.206 140.715  0.00  0.00     0.164 HD
ATOM     27  O           0     131.568 133.334 140.313  0.00  0.00    -0.239 OA
BRANCH  25  28
ATOM     28  C           0     133.184 135.329 139.488  0.00  0.00     0.144 C 
BRANCH  28  29
ATOM     29  C           0     133.862 135.157 138.127  0.00  0.00     0.142 C 
BRANCH  29  30
ATOM     30  N           0     132.868 135.316 137.063  0.00  0.00    -0.359 N 
ATOM     31  C           0     133.267 135.594 135.806  0.00  0.00     0.219 C 
ATOM     32  O           0     134.448 135.712 135.556  0.00  0.00    -0.274 OA
ATOM     33  H           0     131.924 135.222 137.263  0.00  0.00     0.162 HD
BRANCH  31  34
ATOM     34  C           0     132.245 135.758 134.710  0.00  0.00     0.123 C 
BRANCH  34  35
ATOM     35  C           0     130.929 135.104 135.136  0.00  0.00     0.144 C 
BRANCH  35  36
ATOM     36  N           0     130.859 133.746 134.591  0.00  0.00    -0.288 N 
ATOM     37  C           0     130.568 133.495 133.308  0.00  0.00     0.226 A 
ATOM     38  C           0     130.582 131.999 133.078  0.00  0.00     0.112 A 
ATOM     39  O           0     130.337 134.333 132.464  0.00  0.00    -0.273 OA
ATOM     40  C           0     130.925 131.424 134.467  0.00  0.00     0.112 A 
ATOM     41  C           0     131.074 132.654 135.334  0.00  0.00     0.226 A 
ATOM     42  O           0     131.346 132.652 136.516  0.00  0.00    -0.273 OA
ENDBRANCH  35  36
ENDBRANCH  34  35
ENDBRANCH  31  34
ENDBRANCH  29  30
ENDBRANCH  28  29
ENDBRANCH  25  28
ENDBRANCH  23  24
ENDBRANCH  22  23
ENDBRANCH   6  22
BRANCH  18  43
ATOM     43  O           0     138.230 131.287 144.990  0.00  0.00    -0.362 OA
ATOM     44  H           0     137.561 130.881 145.556  0.00  0.00     0.213 HD
ENDBRANCH  18  43
BRANCH  18  45
ATOM     45  O           0     136.998 131.248 142.992  0.00  0.00    -0.362 OA
ATOM     46  H           0     137.282 131.632 142.151  0.00  0.00     0.213 HD
ENDBRANCH  18  45
TORSDOF 11
ENDMDL
MODEL 3
REMARK VINA RESULT:      -8.3      7.219     10.535
REMARK  11 active torsions:
REMARK  status: ('A' for Active; 'I' for Inactive)
REMARK    1  A    between atoms: C_6  and  C_7 
REMARK    2  A    between atoms: C_7  and  O_8 
REMARK    3  A    between atoms: O_8  and  C_9 
REMARK       I    between atoms: C_9  and  N_10 
REMARK    4  A    between atoms: N_10  and  C_11 
REMARK    5  A    between atoms: C_11  and  C_12 
REMARK    6  A    between atoms: C_12  and  N_13 
REMARK       I    between atoms: N_13  and  C_14 
REMARK    7  A    between atoms: C_14  and  C_15 
REMARK    8  A    between atoms: C_15  and  C_16 
REMARK    9  A    between atoms: C_16  and  N_17 
REMARK   10  A    between atoms: C_37  and  O_38 
REMARK   11  A    between atoms: C_37  and  O_39 
ROOT
ATOM      1  N           0     136.007 134.618 146.579  0.00  0.00    -0.235 N 
ATOM      2  H           0     136.486 135.424 146.828  0.00  0.00     0.174 HD
ATOM      3  H           0     135.524 134.113 147.251  0.00  0.00     0.174 HD
ATOM      4  C           0     136.008 134.216 145.339  0.00  0.00     0.672 C 
ATOM      5  N           0     136.677 134.904 144.342  0.00  0.00    -0.218 N 
ATOM      6  C           0     137.169 134.151 143.192  0.00  0.00     0.151 C 
ATOM      7  C           0     136.098 133.281 142.561  0.00  0.00     0.180 C 
ATOM      8  N           0     135.196 134.129 141.754  0.00  0.00    -0.216 N 
ATOM      9  C           0     133.915 133.668 141.942  0.00  0.00     0.670 C 
ATOM     10  N           0     132.922 133.920 141.136  0.00  0.00    -0.235 N 
ATOM     11  H           0     133.063 134.465 140.347  0.00  0.00     0.174 HD
ATOM     12  H           0     132.040 133.563 141.328  0.00  0.00     0.174 HD
ATOM     13  C           0     135.170 132.613 143.565  0.00  0.00     0.217 C 
ATOM     14  N           0     133.812 132.910 143.081  0.00  0.00    -0.191 N 
ATOM     15  N           0     135.351 133.082 144.939  0.00  0.00    -0.183 N 
ATOM     16  C           0     134.730 132.048 145.788  0.00  0.00     0.150 C 
ATOM     17  C           0     135.096 130.713 145.096  0.00  0.00     0.093 C 
ATOM     18  C           0     135.385 131.091 143.621  0.00  0.00     0.209 C 
ATOM     19  H           0     136.815 135.862 144.406  0.00  0.00     0.178 HD
ATOM     20  H           0     135.459 134.875 141.194  0.00  0.00     0.178 HD
ATOM     21  H           0     132.985 132.616 143.494  0.00  0.00     0.180 HD
ENDROOT
BRANCH   6  22
ATOM     22  C           0     138.326 133.258 143.644  0.00  0.00     0.208 C 
BRANCH  22  23
ATOM     23  O           0     138.604 133.500 145.048  0.00  0.00    -0.302 OA
BRANCH  23  24
ATOM     24  C           0     139.066 132.501 145.825  0.00  0.00     0.360 C 
ATOM     25  N           0     138.211 131.788 146.583  0.00  0.00    -0.335 N 
ATOM     26  H           0     137.263 131.993 146.570  0.00  0.00     0.164 HD
ATOM     27  O           0     140.253 132.243 145.841  0.00  0.00    -0.239 OA
BRANCH  25  28
ATOM     28  C           0     138.712 130.701 147.427  0.00  0.00     0.144 C 
BRANCH  28  29
ATOM     29  C           0     138.369 130.990 148.890  0.00  0.00     0.142 C 
BRANCH  29  30
ATOM     30  N           0     136.963 130.658 149.137  0.00  0.00    -0.359 N 
ATOM     31  C           0     136.035 131.635 149.160  0.00  0.00     0.219 C 
ATOM     32  O           0     136.363 132.788 148.977  0.00  0.00    -0.274 OA
ATOM     33  H           0     136.701 129.736 149.283  0.00  0.00     0.162 HD
BRANCH  31  34
ATOM     34  C           0     134.589 131.294 149.413  0.00  0.00     0.123 C 
BRANCH  34  35
ATOM     35  C           0     134.491 129.886 150.003  0.00  0.00     0.144 C 
BRANCH  35  36
ATOM     36  N           0     133.749 129.021 149.082  0.00  0.00    -0.288 N 
ATOM     37  C           0     134.333 128.389 148.056  0.00  0.00     0.226 A 
ATOM     38  C           0     133.290 127.581 147.313  0.00  0.00     0.112 A 
ATOM     39  O           0     135.509 128.448 147.771  0.00  0.00    -0.273 OA
ATOM     40  C           0     131.990 127.867 148.091  0.00  0.00     0.112 A 
ATOM     41  C           0     132.434 128.802 149.194  0.00  0.00     0.226 A 
ATOM     42  O           0     131.713 129.278 150.045  0.00  0.00    -0.273 OA
ENDBRANCH  35  36
ENDBRANCH  34  35
ENDBRANCH  31  34
ENDBRANCH  29  30
ENDBRANCH  28  29
ENDBRANCH  25  28
ENDBRANCH  23  24
ENDBRANCH  22  23
ENDBRANCH   6  22
BRANCH  18  43
ATOM     43  O           0     134.473 130.421 142.747  0.00  0.00    -0.362 OA
ATOM     44  H           0     134.876 129.573 142.521  0.00  0.00     0.213 HD
ENDBRANCH  18  43
BRANCH  18  45
ATOM     45  O           0     136.734 130.766 143.278  0.00  0.00    -0.362 OA
ATOM     46  H           0     136.692 130.127 142.554  0.00  0.00     0.213 HD
ENDBRANCH  18  45
TORSDOF 11
ENDMDL
MODEL 4
REMARK VINA RESULT:      -8.3      2.686     11.755
REMARK  11 active torsions:
REMARK  status: ('A' for Active; 'I' for Inactive)
REMARK    1  A    between atoms: C_6  and  C_7 
REMARK    2  A    between atoms: C_7  and  O_8 
REMARK    3  A    between atoms: O_8  and  C_9 
REMARK       I    between atoms: C_9  and  N_10 
REMARK    4  A    between atoms: N_10  and  C_11 
REMARK    5  A    between atoms: C_11  and  C_12 
REMARK    6  A    between atoms: C_12  and  N_13 
REMARK       I    between atoms: N_13  and  C_14 
REMARK    7  A    between atoms: C_14  and  C_15 
REMARK    8  A    between atoms: C_15  and  C_16 
REMARK    9  A    between atoms: C_16  and  N_17 
REMARK   10  A    between atoms: C_37  and  O_38 
REMARK   11  A    between atoms: C_37  and  O_39 
ROOT
ATOM      1  N           0     139.489 130.700 145.823  0.00  0.00    -0.235 N 
ATOM      2  H           0     140.261 130.846 145.254  0.00  0.00     0.174 HD
ATOM      3  H           0     139.472 129.946 146.434  0.00  0.00     0.174 HD
ATOM      4  C           0     138.476 131.519 145.771  0.00  0.00     0.672 C 
ATOM      5  N           0     138.456 132.610 144.921  0.00  0.00    -0.218 N 
ATOM      6  C           0     137.162 133.092 144.445  0.00  0.00     0.151 C 
ATOM      7  C           0     136.173 133.322 145.572  0.00  0.00     0.180 C 
ATOM      8  N           0     136.508 134.585 146.263  0.00  0.00    -0.216 N 
ATOM      9  C           0     136.323 134.383 147.609  0.00  0.00     0.670 C 
ATOM     10  N           0     136.169 135.342 148.478  0.00  0.00    -0.235 N 
ATOM     11  H           0     136.182 136.267 148.188  0.00  0.00     0.174 HD
ATOM     12  H           0     136.043 135.130 149.417  0.00  0.00     0.174 HD
ATOM     13  C           0     136.234 132.276 146.674  0.00  0.00     0.217 C 
ATOM     14  N           0     136.320 133.048 147.925  0.00  0.00    -0.191 N 
ATOM     15  N           0     137.362 131.352 146.550  0.00  0.00    -0.183 N 
ATOM     16  C           0     137.010 130.192 147.390  0.00  0.00     0.150 C 
ATOM     17  C           0     135.491 130.003 147.166  0.00  0.00     0.093 C 
ATOM     18  C           0     134.978 131.387 146.693  0.00  0.00     0.209 C 
ATOM     19  H           0     139.279 133.044 144.648  0.00  0.00     0.178 HD
ATOM     20  H           0     136.805 135.407 145.843  0.00  0.00     0.178 HD
ATOM     21  H           0     136.363 132.676 148.820  0.00  0.00     0.180 HD
ENDROOT
BRANCH   6  22
ATOM     22  C           0     136.575 132.062 143.478  0.00  0.00     0.208 C 
BRANCH  22  23
ATOM     23  O           0     136.273 132.704 142.212  0.00  0.00    -0.302 OA
BRANCH  23  24
ATOM     24  C           0     134.998 133.004 141.896  0.00  0.00     0.360 C 
ATOM     25  N           0     134.720 133.613 140.727  0.00  0.00    -0.335 N 
ATOM     26  H           0     135.437 133.835 140.113  0.00  0.00     0.164 HD
ATOM     27  O           0     134.100 132.726 142.666  0.00  0.00    -0.239 OA
BRANCH  25  28
ATOM     28  C           0     133.333 133.939 140.384  0.00  0.00     0.144 C 
BRANCH  28  29
ATOM     29  C           0     133.268 135.359 139.816  0.00  0.00     0.142 C 
BRANCH  29  30
ATOM     30  N           0     132.900 135.302 138.399  0.00  0.00    -0.359 N 
ATOM     31  C           0     133.856 135.161 137.461  0.00  0.00     0.219 C 
ATOM     32  O           0     135.021 135.081 137.788  0.00  0.00    -0.274 OA
ATOM     33  H           0     131.968 135.366 138.137  0.00  0.00     0.162 HD
BRANCH  31  34
ATOM     34  C           0     133.478 135.103 136.003  0.00  0.00     0.123 C 
BRANCH  34  35
ATOM     35  C           0     131.956 135.182 135.865  0.00  0.00     0.144 C 
BRANCH  35  36
ATOM     36  N           0     131.458 133.958 135.234  0.00  0.00    -0.288 N 
ATOM     37  C           0     131.168 132.851 135.931  0.00  0.00     0.226 A 
ATOM     38  C           0     130.676 131.781 134.981  0.00  0.00     0.112 A 
ATOM     39  O           0     131.275 132.729 137.132  0.00  0.00    -0.273 OA
ATOM     40  C           0     130.743 132.464 133.600  0.00  0.00     0.112 A 
ATOM     41  C           0     131.260 133.851 133.915  0.00  0.00     0.226 A 
ATOM     42  O           0     131.462 134.727 133.102  0.00  0.00    -0.273 OA
ENDBRANCH  35  36
ENDBRANCH  34  35
ENDBRANCH  31  34
ENDBRANCH  29  30
ENDBRANCH  28  29
ENDBRANCH  25  28
ENDBRANCH  23  24
ENDBRANCH  22  23
ENDBRANCH   6  22
BRANCH  18  43
ATOM     43  O           0     134.011 131.901 147.612  0.00  0.00    -0.362 OA
ATOM     44  H           0     133.207 132.070 147.106  0.00  0.00     0.213 HD
ENDBRANCH  18  43
BRANCH  18  45
ATOM     45  O           0     134.418 131.291 145.382  0.00  0.00    -0.362 OA
ATOM     46  H           0     133.507 130.983 145.489  0.00  0.00     0.213 HD
ENDBRANCH  18  45
TORSDOF 11
ENDMDL
MODEL 5
REMARK VINA RESULT:      -8.2      3.180     11.994
REMARK  11 active torsions:
REMARK  status: ('A' for Active; 'I' for Inactive)
REMARK    1  A    between atoms: C_6  and  C_7 
REMARK    2  A    between atoms: C_7  and  O_8 
REMARK    3  A    between atoms: O_8  and  C_9 
REMARK       I    between atoms: C_9  and  N_10 
REMARK    4  A    between atoms: N_10  and  C_11 
REMARK    5  A    between atoms: C_11  and  C_12 
REMARK    6  A    between atoms: C_12  and  N_13 
REMARK       I    between atoms: N_13  and  C_14 
REMARK    7  A    between atoms: C_14  and  C_15 
REMARK    8  A    between atoms: C_15  and  C_16 
REMARK    9  A    between atoms: C_16  and  N_17 
REMARK   10  A    between atoms: C_37  and  O_38 
REMARK   11  A    between atoms: C_37  and  O_39 
ROOT
ATOM      1  N           0     139.827 131.009 145.888  0.00  0.00    -0.235 N 
ATOM      2  H           0     140.589 131.239 145.334  0.00  0.00     0.174 HD
ATOM      3  H           0     139.877 130.252 146.492  0.00  0.00     0.174 HD
ATOM      4  C           0     138.736 131.720 145.824  0.00  0.00     0.672 C 
ATOM      5  N           0     138.618 132.812 144.983  0.00  0.00    -0.218 N 
ATOM      6  C           0     137.290 133.163 144.488  0.00  0.00     0.151 C 
ATOM      7  C           0     136.263 133.279 145.599  0.00  0.00     0.180 C 
ATOM      8  N           0     136.455 134.563 146.306  0.00  0.00    -0.216 N 
ATOM      9  C           0     136.269 134.329 147.647  0.00  0.00     0.670 C 
ATOM     10  N           0     136.002 135.258 148.521  0.00  0.00    -0.235 N 
ATOM     11  H           0     135.924 136.183 148.238  0.00  0.00     0.174 HD
ATOM     12  H           0     135.882 135.025 149.456  0.00  0.00     0.174 HD
ATOM     13  C           0     136.413 132.233 146.693  0.00  0.00     0.217 C 
ATOM     14  N           0     136.397 132.998 147.951  0.00  0.00    -0.191 N 
ATOM     15  N           0     137.632 131.432 146.582  0.00  0.00    -0.183 N 
ATOM     16  C           0     137.387 130.234 147.406  0.00  0.00     0.150 C 
ATOM     17  C           0     135.899 129.891 147.153  0.00  0.00     0.093 C 
ATOM     18  C           0     135.255 131.221 146.682  0.00  0.00     0.209 C 
ATOM     19  H           0     139.397 133.332 144.729  0.00  0.00     0.178 HD
ATOM     20  H           0     136.673 135.415 145.898  0.00  0.00     0.178 HD
ATOM     21  H           0     136.464 132.623 148.844  0.00  0.00     0.180 HD
ENDROOT
BRANCH   6  22
ATOM     22  C           0     136.829 132.088 143.502  0.00  0.00     0.208 C 
BRANCH  22  23
ATOM     23  O           0     136.491 132.708 142.234  0.00  0.00    -0.302 OA
BRANCH  23  24
ATOM     24  C           0     135.202 132.817 141.860  0.00  0.00     0.360 C 
ATOM     25  N           0     134.839 133.748 140.957  0.00  0.00    -0.335 N 
ATOM     26  H           0     135.506 134.340 140.575  0.00  0.00     0.164 HD
ATOM     27  O           0     134.366 132.075 142.337  0.00  0.00    -0.239 OA
BRANCH  25  28
ATOM     28  C           0     133.437 133.867 140.549  0.00  0.00     0.144 C 
BRANCH  28  29
ATOM     29  C           0     133.191 135.258 139.962  0.00  0.00     0.142 C 
BRANCH  29  30
ATOM     30  N           0     134.022 135.438 138.768  0.00  0.00    -0.359 N 
ATOM     31  C           0     133.554 135.067 137.561  0.00  0.00     0.219 C 
ATOM     32  O           0     132.446 134.584 137.461  0.00  0.00    -0.274 OA
ATOM     33  H           0     134.908 135.824 138.848  0.00  0.00     0.162 HD
BRANCH  31  34
ATOM     34  C           0     134.408 135.251 136.332  0.00  0.00     0.123 C 
BRANCH  34  35
ATOM     35  C           0     133.509 135.467 135.113  0.00  0.00     0.144 C 
BRANCH  35  36
ATOM     36  N           0     134.012 134.675 133.988  0.00  0.00    -0.288 N 
ATOM     37  C           0     134.743 135.205 132.999  0.00  0.00     0.226 A 
ATOM     38  C           0     135.100 134.118 132.008  0.00  0.00     0.112 A 
ATOM     39  O           0     135.073 136.367 132.915  0.00  0.00    -0.273 OA
ATOM     40  C           0     134.433 132.858 132.597  0.00  0.00     0.112 A 
ATOM     41  C           0     133.774 133.364 133.862  0.00  0.00     0.226 A 
ATOM     42  O           0     133.132 132.689 134.638  0.00  0.00    -0.273 OA
ENDBRANCH  35  36
ENDBRANCH  34  35
ENDBRANCH  31  34
ENDBRANCH  29  30
ENDBRANCH  28  29
ENDBRANCH  25  28
ENDBRANCH  23  24
ENDBRANCH  22  23
ENDBRANCH   6  22
BRANCH  18  43
ATOM     43  O           0     134.225 131.623 147.588  0.00  0.00    -0.362 OA
ATOM     44  H           0     134.504 131.344 148.470  0.00  0.00     0.213 HD
ENDBRANCH  18  43
BRANCH  18  45
ATOM     45  O           0     134.730 131.080 145.361  0.00  0.00    -0.362 OA
ATOM     46  H           0     134.605 130.133 145.209  0.00  0.00     0.213 HD
ENDBRANCH  18  45
TORSDOF 11
ENDMDL
MODEL 6
REMARK VINA RESULT:      -8.2      1.912      2.729
REMARK  11 active torsions:
REMARK  status: ('A' for Active; 'I' for Inactive)
REMARK    1  A    between atoms: C_6  and  C_7 
REMARK    2  A    between atoms: C_7  and  O_8 
REMARK    3  A    between atoms: O_8  and  C_9 
REMARK       I    between atoms: C_9  and  N_10 
REMARK    4  A    between atoms: N_10  and  C_11 
REMARK    5  A    between atoms: C_11  and  C_12 
REMARK    6  A    between atoms: C_12  and  N_13 
REMARK       I    between atoms: N_13  and  C_14 
REMARK    7  A    between atoms: C_14  and  C_15 
REMARK    8  A    between atoms: C_15  and  C_16 
REMARK    9  A    between atoms: C_16  and  N_17 
REMARK   10  A    between atoms: C_37  and  O_38 
REMARK   11  A    between atoms: C_37  and  O_39 
ROOT
ATOM      1  N           0     133.679 134.224 131.987  0.00  0.00    -0.235 N 
ATOM      2  H           0     134.551 134.369 132.387  0.00  0.00     0.174 HD
ATOM      3  H           0     133.535 134.429 131.050  0.00  0.00     0.174 HD
ATOM      4  C           0     132.703 133.749 132.707  0.00  0.00     0.672 C 
ATOM      5  N           0     132.860 133.435 134.046  0.00  0.00    -0.218 N 
ATOM      6  C           0     131.692 133.518 134.918  0.00  0.00     0.151 C 
ATOM      7  C           0     130.497 132.763 134.369  0.00  0.00     0.180 C 
ATOM      8  N           0     130.692 131.315 134.592  0.00  0.00    -0.216 N 
ATOM      9  C           0     130.237 130.657 133.474  0.00  0.00     0.670 C 
ATOM     10  N           0     129.915 129.395 133.449  0.00  0.00    -0.235 N 
ATOM     11  H           0     129.992 128.858 134.253  0.00  0.00     0.174 HD
ATOM     12  H           0     129.601 128.991 132.624  0.00  0.00     0.174 HD
ATOM     13  C           0     130.328 132.880 132.861  0.00  0.00     0.217 C 
ATOM     14  N           0     130.163 131.495 132.390  0.00  0.00    -0.191 N 
ATOM     15  N           0     131.453 133.532 132.190  0.00  0.00    -0.183 N 
ATOM     16  C           0     130.932 133.950 130.875  0.00  0.00     0.150 C 
ATOM     17  C           0     129.489 134.425 131.168  0.00  0.00     0.093 C 
ATOM     18  C           0     129.090 133.711 132.485  0.00  0.00     0.209 C 
ATOM     19  H           0     133.724 133.166 134.395  0.00  0.00     0.178 HD
ATOM     20  H           0     131.072 130.903 135.383  0.00  0.00     0.178 HD
ATOM     21  H           0     130.023 131.221 131.470  0.00  0.00     0.180 HD
ENDROOT
BRANCH   6  22
ATOM     22  C           0     131.308 134.989 135.090  0.00  0.00     0.208 C 
BRANCH  22  23
ATOM     23  O           0     132.505 135.778 135.314  0.00  0.00    -0.302 OA
BRANCH  23  24
ATOM     24  C           0     133.378 135.421 136.277  0.00  0.00     0.360 C 
ATOM     25  N           0     132.994 135.426 137.568  0.00  0.00    -0.335 N 
ATOM     26  H           0     132.090 135.686 137.805  0.00  0.00     0.164 HD
ATOM     27  O           0     134.510 135.095 135.980  0.00  0.00    -0.239 OA
BRANCH  25  28
ATOM     28  C           0     133.942 135.037 138.615  0.00  0.00     0.144 C 
BRANCH  28  29
ATOM     29  C           0     133.203 134.903 139.949  0.00  0.00     0.142 C 
BRANCH  29  30
ATOM     30  N           0     133.966 134.030 140.844  0.00  0.00    -0.359 N 
ATOM     31  C           0     133.367 132.973 141.426  0.00  0.00     0.219 C 
ATOM     32  O           0     132.196 132.744 141.208  0.00  0.00    -0.274 OA
ATOM     33  H           0     134.903 134.213 141.018  0.00  0.00     0.162 HD
BRANCH  31  34
ATOM     34  C           0     134.151 132.075 142.347  0.00  0.00     0.123 C 
BRANCH  34  35
ATOM     35  C           0     134.492 132.832 143.632  0.00  0.00     0.144 C 
BRANCH  35  36
ATOM     36  N           0     135.854 133.363 143.540  0.00  0.00    -0.288 N 
ATOM     37  C           0     136.941 132.581 143.588  0.00  0.00     0.226 A 
ATOM     38  C           0     138.178 133.443 143.461  0.00  0.00     0.112 A 
ATOM     39  O           0     136.933 131.376 143.707  0.00  0.00    -0.273 OA
ATOM     40  C           0     137.613 134.872 143.340  0.00  0.00     0.112 A 
ATOM     41  C           0     136.116 134.669 143.405  0.00  0.00     0.226 A 
ATOM     42  O           0     135.283 135.549 143.346  0.00  0.00    -0.273 OA
ENDBRANCH  35  36
ENDBRANCH  34  35
ENDBRANCH  31  34
ENDBRANCH  29  30
ENDBRANCH  28  29
ENDBRANCH  25  28
ENDBRANCH  23  24
ENDBRANCH  22  23
ENDBRANCH   6  22
BRANCH  18  43
ATOM     43  O           0     127.960 132.863 132.269  0.00  0.00    -0.362 OA
ATOM     44  H           0     127.525 133.176 131.465  0.00  0.00     0.213 HD
ENDBRANCH  18  43
BRANCH  18  45
ATOM     45  O           0     128.806 134.670 133.505  0.00  0.00    -0.362 OA
ATOM     46  H           0     128.816 135.540 133.082  0.00  0.00     0.213 HD
ENDBRANCH  18  45
TORSDOF 11
ENDMDL
MODEL 7
REMARK VINA RESULT:      -8.0      2.834     10.464
REMARK  11 active torsions:
REMARK  status: ('A' for Active; 'I' for Inactive)
REMARK    1  A    between atoms: C_6  and  C_7 
REMARK    2  A    between atoms: C_7  and  O_8 
REMARK    3  A    between atoms: O_8  and  C_9 
REMARK       I    between atoms: C_9  and  N_10 
REMARK    4  A    between atoms: N_10  and  C_11 
REMARK    5  A    between atoms: C_11  and  C_12 
REMARK    6  A    between atoms: C_12  and  N_13 
REMARK       I    between atoms: N_13  and  C_14 
REMARK    7  A    between atoms: C_14  and  C_15 
REMARK    8  A    between atoms: C_15  and  C_16 
REMARK    9  A    between atoms: C_16  and  N_17 
REMARK   10  A    between atoms: C_37  and  O_38 
REMARK   11  A    between atoms: C_37  and  O_39 
ROOT
ATOM      1  N           0     134.864 136.702 143.071  0.00  0.00    -0.235 N 
ATOM      2  H           0     134.056 137.178 142.824  0.00  0.00     0.174 HD
ATOM      3  H           0     135.689 137.190 143.220  0.00  0.00     0.174 HD
ATOM      4  C           0     134.842 135.405 143.206  0.00  0.00     0.672 C 
ATOM      5  N           0     133.689 134.665 143.010  0.00  0.00    -0.218 N 
ATOM      6  C           0     133.825 133.281 142.563  0.00  0.00     0.151 C 
ATOM      7  C           0     134.788 132.482 143.419  0.00  0.00     0.180 C 
ATOM      8  N           0     134.124 132.118 144.689  0.00  0.00    -0.216 N 
ATOM      9  C           0     135.053 132.245 145.694  0.00  0.00     0.670 C 
ATOM     10  N           0     134.948 131.678 146.862  0.00  0.00    -0.235 N 
ATOM     11  H           0     134.176 131.126 147.067  0.00  0.00     0.174 HD
ATOM     12  H           0     135.641 131.809 147.529  0.00  0.00     0.174 HD
ATOM     13  C           0     136.019 133.260 143.860  0.00  0.00     0.217 C 
ATOM     14  N           0     136.104 133.040 145.314  0.00  0.00    -0.191 N 
ATOM     15  N           0     135.958 134.688 143.548  0.00  0.00    -0.183 N 
ATOM     16  C           0     137.351 135.163 143.624  0.00  0.00     0.150 C 
ATOM     17  C           0     138.184 134.009 143.018  0.00  0.00     0.093 C 
ATOM     18  C           0     137.298 132.747 143.178  0.00  0.00     0.209 C 
ATOM     19  H           0     132.815 135.055 143.165  0.00  0.00     0.178 HD
ATOM     20  H           0     133.201 131.841 144.794  0.00  0.00     0.178 HD
ATOM     21  H           0     136.789 133.395 145.902  0.00  0.00     0.180 HD
ENDROOT
BRANCH   6  22
ATOM     22  C           0     134.328 133.275 141.119  0.00  0.00     0.208 C 
BRANCH  22  23
ATOM     23  O           0     133.209 133.476 140.216  0.00  0.00    -0.302 OA
BRANCH  23  24
ATOM     24  C           0     133.142 134.591 139.464  0.00  0.00     0.360 C 
ATOM     25  N           0     132.956 134.496 138.133  0.00  0.00    -0.335 N 
ATOM     26  H           0     132.870 133.624 137.716  0.00  0.00     0.164 HD
ATOM     27  O           0     133.250 135.683 139.986  0.00  0.00    -0.239 OA
BRANCH  25  28
ATOM     28  C           0     132.883 135.709 137.315  0.00  0.00     0.144 C 
BRANCH  28  29
ATOM     29  C           0     132.085 135.419 136.042  0.00  0.00     0.142 C 
BRANCH  29  30
ATOM     30  N           0     132.802 134.432 135.231  0.00  0.00    -0.359 N 
ATOM     31  C           0     132.626 134.402 133.895  0.00  0.00     0.219 C 
ATOM     32  O           0     131.875 135.193 133.364  0.00  0.00    -0.274 OA
ATOM     33  H           0     133.403 133.799 135.655  0.00  0.00     0.162 HD
BRANCH  31  34
ATOM     34  C           0     133.363 133.387 133.060  0.00  0.00     0.123 C 
BRANCH  34  35
ATOM     35  C           0     134.572 132.864 133.839  0.00  0.00     0.144 C 
BRANCH  35  36
ATOM     36  N           0     134.880 131.500 133.406  0.00  0.00    -0.288 N 
ATOM     37  C           0     135.766 131.230 132.438  0.00  0.00     0.226 A 
ATOM     38  C           0     135.849 129.732 132.243  0.00  0.00     0.112 A 
ATOM     39  O           0     136.406 132.055 131.822  0.00  0.00    -0.273 OA
ATOM     40  C           0     134.839 129.178 133.268  0.00  0.00     0.112 A 
ATOM     41  C           0     134.296 130.420 133.939  0.00  0.00     0.226 A 
ATOM     42  O           0     133.464 130.436 134.821  0.00  0.00    -0.273 OA
ENDBRANCH  35  36
ENDBRANCH  34  35
ENDBRANCH  31  34
ENDBRANCH  29  30
ENDBRANCH  28  29
ENDBRANCH  25  28
ENDBRANCH  23  24
ENDBRANCH  22  23
ENDBRANCH   6  22
BRANCH  18  43
ATOM     43  O           0     137.954 131.779 144.000  0.00  0.00    -0.362 OA
ATOM     44  H           0     138.890 132.016 144.019  0.00  0.00     0.213 HD
ENDBRANCH  18  43
BRANCH  18  45
ATOM     45  O           0     136.990 132.189 141.899  0.00  0.00    -0.362 OA
ATOM     46  H           0     137.478 131.356 141.832  0.00  0.00     0.213 HD
ENDBRANCH  18  45
TORSDOF 11
ENDMDL
MODEL 8
REMARK VINA RESULT:      -8.0      2.293      3.537
REMARK  11 active torsions:
REMARK  status: ('A' for Active; 'I' for Inactive)
REMARK    1  A    between atoms: C_6  and  C_7 
REMARK    2  A    between atoms: C_7  and  O_8 
REMARK    3  A    between atoms: O_8  and  C_9 
REMARK       I    between atoms: C_9  and  N_10 
REMARK    4  A    between atoms: N_10  and  C_11 
REMARK    5  A    between atoms: C_11  and  C_12 
REMARK    6  A    between atoms: C_12  and  N_13 
REMARK       I    between atoms: N_13  and  C_14 
REMARK    7  A    between atoms: C_14  and  C_15 
REMARK    8  A    between atoms: C_15  and  C_16 
REMARK    9  A    between atoms: C_16  and  N_17 
REMARK   10  A    between atoms: C_37  and  O_38 
REMARK   11  A    between atoms: C_37  and  O_39 
ROOT
ATOM      1  N           0     134.109 134.054 131.107  0.00  0.00    -0.235 N 
ATOM      2  H           0     134.744 133.326 131.201  0.00  0.00     0.174 HD
ATOM      3  H           0     134.210 134.697 130.388  0.00  0.00     0.174 HD
ATOM      4  C           0     133.118 134.166 131.946  0.00  0.00     0.672 C 
ATOM      5  N           0     132.927 133.272 132.984  0.00  0.00    -0.218 N 
ATOM      6  C           0     132.258 133.747 134.192  0.00  0.00     0.151 C 
ATOM      7  C           0     130.947 134.450 133.896  0.00  0.00     0.180 C 
ATOM      8  N           0     129.911 133.440 133.592  0.00  0.00    -0.216 N 
ATOM      9  C           0     129.145 133.928 132.562  0.00  0.00     0.670 C 
ATOM     10  N           0     127.948 133.500 132.273  0.00  0.00    -0.235 N 
ATOM     11  H           0     127.547 132.790 132.800  0.00  0.00     0.174 HD
ATOM     12  H           0     127.460 133.889 131.531  0.00  0.00     0.174 HD
ATOM     13  C           0     130.979 135.325 132.653  0.00  0.00     0.217 C 
ATOM     14  N           0     129.794 134.924 131.877  0.00  0.00    -0.191 N 
ATOM     15  N           0     132.199 135.179 131.859  0.00  0.00    -0.183 N 
ATOM     16  C           0     132.251 136.376 131.000  0.00  0.00     0.150 C 
ATOM     17  C           0     131.740 137.522 131.907  0.00  0.00     0.093 C 
ATOM     18  C           0     130.895 136.821 133.001  0.00  0.00     0.209 C 
ATOM     19  H           0     133.230 132.353 132.912  0.00  0.00     0.178 HD
ATOM     20  H           0     129.794 132.586 134.038  0.00  0.00     0.178 HD
ATOM     21  H           0     129.517 135.302 131.027  0.00  0.00     0.180 HD
ENDROOT
BRANCH   6  22
ATOM     22  C           0     133.185 134.721 134.921  0.00  0.00     0.208 C 
BRANCH  22  23
ATOM     23  O           0     132.541 135.183 136.137  0.00  0.00    -0.302 OA
BRANCH  23  24
ATOM     24  C           0     133.227 135.204 137.296  0.00  0.00     0.360 C 
ATOM     25  N           0     132.580 135.416 138.458  0.00  0.00    -0.335 N 
ATOM     26  H           0     131.619 135.553 138.461  0.00  0.00     0.164 HD
ATOM     27  O           0     134.430 135.031 137.293  0.00  0.00    -0.239 OA
BRANCH  25  28
ATOM     28  C           0     133.325 135.437 139.719  0.00  0.00     0.144 C 
BRANCH  28  29
ATOM     29  C           0     133.242 134.062 140.385  0.00  0.00     0.142 C 
BRANCH  29  30
ATOM     30  N           0     134.582 133.637 140.798  0.00  0.00    -0.359 N 
ATOM     31  C           0     134.809 133.271 142.074  0.00  0.00     0.219 C 
ATOM     32  O           0     133.904 133.292 142.882  0.00  0.00    -0.274 OA
ATOM     33  H           0     135.306 133.620 140.152  0.00  0.00     0.162 HD
BRANCH  31  34
ATOM     34  C           0     136.187 132.833 142.499  0.00  0.00     0.123 C 
BRANCH  34  35
ATOM     35  C           0     136.587 133.574 143.777  0.00  0.00     0.144 C 
BRANCH  35  36
ATOM     36  N           0     137.132 132.619 144.745  0.00  0.00    -0.288 N 
ATOM     37  C           0     138.437 132.323 144.814  0.00  0.00     0.226 A 
ATOM     38  C           0     138.659 131.313 145.918  0.00  0.00     0.112 A 
ATOM     39  O           0     139.302 132.795 144.109  0.00  0.00    -0.273 OA
ATOM     40  C           0     137.242 131.066 146.474  0.00  0.00     0.112 A 
ATOM     41  C           0     136.368 131.967 145.629  0.00  0.00     0.226 A 
ATOM     42  O           0     135.165 132.081 145.737  0.00  0.00    -0.273 OA
ENDBRANCH  35  36
ENDBRANCH  34  35
ENDBRANCH  31  34
ENDBRANCH  29  30
ENDBRANCH  28  29
ENDBRANCH  25  28
ENDBRANCH  23  24
ENDBRANCH  22  23
ENDBRANCH   6  22
BRANCH  18  43
ATOM     43  O           0     129.540 137.275 132.951  0.00  0.00    -0.362 OA
ATOM     44  H           0     129.173 136.965 132.112  0.00  0.00     0.213 HD
ENDBRANCH  18  43
BRANCH  18  45
ATOM     45  O           0     131.454 137.063 134.294  0.00  0.00    -0.362 OA
ATOM     46  H           0     131.426 136.222 134.772  0.00  0.00     0.213 HD
ENDBRANCH  18  45
TORSDOF 11
ENDMDL
MODEL 9
REMARK VINA RESULT:      -7.9      2.522     11.628
REMARK  11 active torsions:
REMARK  status: ('A' for Active; 'I' for Inactive)
REMARK    1  A    between atoms: C_6  and  C_7 
REMARK    2  A    between atoms: C_7  and  O_8 
REMARK    3  A    between atoms: O_8  and  C_9 
REMARK       I    between atoms: C_9  and  N_10 
REMARK    4  A    between atoms: N_10  and  C_11 
REMARK    5  A    between atoms: C_11  and  C_12 
REMARK    6  A    between atoms: C_12  and  N_13 
REMARK       I    between atoms: N_13  and  C_14 
REMARK    7  A    between atoms: C_14  and  C_15 
REMARK    8  A    between atoms: C_15  and  C_16 
REMARK    9  A    between atoms: C_16  and  N_17 
REMARK   10  A    between atoms: C_37  and  O_38 
REMARK   11  A    between atoms: C_37  and  O_39 
ROOT
ATOM      1  N           0     135.254 130.535 143.303  0.00  0.00    -0.235 N 
ATOM      2  H           0     135.125 130.378 142.354  0.00  0.00     0.174 HD
ATOM      3  H           0     134.762 130.010 143.953  0.00  0.00     0.174 HD
ATOM      4  C           0     136.093 131.449 143.704  0.00  0.00     0.672 C 
ATOM      5  N           0     136.823 132.219 142.816  0.00  0.00    -0.218 N 
ATOM      6  C           0     137.226 133.559 143.233  0.00  0.00     0.151 C 
ATOM      7  C           0     137.918 133.569 144.583  0.00  0.00     0.180 C 
ATOM      8  N           0     139.306 133.086 144.422  0.00  0.00    -0.216 N 
ATOM      9  C           0     139.597 132.291 145.503  0.00  0.00     0.670 C 
ATOM     10  N           0     140.806 131.992 145.888  0.00  0.00    -0.235 N 
ATOM     11  H           0     141.569 132.338 145.400  0.00  0.00     0.174 HD
ATOM     12  H           0     140.942 131.423 146.662  0.00  0.00     0.174 HD
ATOM     13  C           0     137.313 132.609 145.597  0.00  0.00     0.217 C 
ATOM     14  N           0     138.457 131.850 146.128  0.00  0.00    -0.191 N 
ATOM     15  N           0     136.305 131.711 145.032  0.00  0.00    -0.183 N 
ATOM     16  C           0     135.543 131.206 146.188  0.00  0.00     0.150 C 
ATOM     17  C           0     135.425 132.426 147.133  0.00  0.00     0.093 C 
ATOM     18  C           0     136.603 133.354 146.740  0.00  0.00     0.209 C 
ATOM     19  H           0     137.061 131.877 141.940  0.00  0.00     0.178 HD
ATOM     20  H           0     139.903 133.293 143.686  0.00  0.00     0.178 HD
ATOM     21  H           0     138.414 131.159 146.808  0.00  0.00     0.180 HD
ENDROOT
BRANCH   6  22
ATOM     22  C           0     135.984 134.448 143.311  0.00  0.00     0.208 C 
BRANCH  22  23
ATOM     23  O           0     134.878 133.793 142.636  0.00  0.00    -0.302 OA
BRANCH  23  24
ATOM     24  C           0     134.104 134.488 141.779  0.00  0.00     0.360 C 
ATOM     25  N           0     133.700 133.922 140.626  0.00  0.00    -0.335 N 
ATOM     26  H           0     133.966 133.014 140.412  0.00  0.00     0.164 HD
ATOM     27  O           0     133.772 135.626 142.048  0.00  0.00    -0.239 OA
BRANCH  25  28
ATOM     28  C           0     132.859 134.677 139.695  0.00  0.00     0.144 C 
BRANCH  28  29
ATOM     29  C           0     133.719 135.211 138.547  0.00  0.00     0.142 C 
BRANCH  29  30
ATOM     30  N           0     132.883 135.398 137.357  0.00  0.00    -0.359 N 
ATOM     31  C           0     133.377 135.112 136.137  0.00  0.00     0.219 C 
ATOM     32  O           0     134.512 134.700 136.022  0.00  0.00    -0.274 OA
ATOM     33  H           0     131.976 135.728 137.449  0.00  0.00     0.162 HD
BRANCH  31  34
ATOM     34  C           0     132.519 135.305 134.913  0.00  0.00     0.123 C 
BRANCH  34  35
ATOM     35  C           0     131.096 134.824 135.205  0.00  0.00     0.144 C 
BRANCH  35  36
ATOM     36  N           0     130.834 133.590 134.460  0.00  0.00    -0.288 N 
ATOM     37  C           0     131.063 132.374 134.971  0.00  0.00     0.226 A 
ATOM     38  C           0     130.683 131.326 133.948  0.00  0.00     0.112 A 
ATOM     39  O           0     131.499 132.148 136.079  0.00  0.00    -0.273 OA
ATOM     40  C           0     130.200 132.156 132.742  0.00  0.00     0.112 A 
ATOM     41  C           0     130.352 133.586 133.211  0.00  0.00     0.226 A 
ATOM     42  O           0     130.079 134.573 132.561  0.00  0.00    -0.273 OA
ENDBRANCH  35  36
ENDBRANCH  34  35
ENDBRANCH  31  34
ENDBRANCH  29  30
ENDBRANCH  28  29
ENDBRANCH  25  28
ENDBRANCH  23  24
ENDBRANCH  22  23
ENDBRANCH   6  22
BRANCH  18  43
ATOM     43  O           0     137.486 133.535 147.849  0.00  0.00    -0.362 OA
ATOM     44  H           0     136.946 133.836 148.591  0.00  0.00     0.213 HD
ENDBRANCH  18  43
BRANCH  18  45
ATOM     45  O           0     136.112 134.615 146.282  0.00  0.00    -0.362 OA
ATOM     46  H           0     135.146 134.568 146.313  0.00  0.00     0.213 HD
ENDBRANCH  18  45
TORSDOF 11
ENDMDL
