MODEL 1
REMARK VINA RESULT:      -7.7      0.000      0.000
REMARK  5 active torsions:
REMARK  status: ('A' for Active; 'I' for Inactive)
REMARK    1  A    between atoms: C_6  and  C_7 
REMARK    2  A    between atoms: C_7  and  O_8 
REMARK    3  A    between atoms: O_8  and  C_9 
REMARK       I    between atoms: C_9  and  N_10 
REMARK    4  A    between atoms: C_24  and  O_25 
REMARK    5  A    between atoms: C_24  and  O_26 
ROOT
ATOM      1  N           0     134.927 136.479 143.375  0.00  0.00    -0.235 N 
ATOM      2  H           0     134.217 137.072 143.083  0.00  0.00     0.174 HD
ATOM      3  H           0     135.759 136.848 143.712  0.00  0.00     0.174 HD
ATOM      4  C           0     134.762 135.187 143.322  0.00  0.00     0.672 C 
ATOM      5  N           0     133.592 134.615 142.856  0.00  0.00    -0.218 N 
ATOM      6  C           0     133.665 133.297 142.232  0.00  0.00     0.151 C 
ATOM      7  C           0     134.403 132.287 143.090  0.00  0.00     0.182 C 
ATOM      8  N           0     133.508 131.826 144.174  0.00  0.00    -0.211 N 
ATOM      9  C           0     132.077 131.540 144.052  0.00  0.00     0.169 C 
ATOM     10  C           0     134.264 131.715 145.316  0.00  0.00     0.672 C 
ATOM     11  N           0     133.918 131.011 146.357  0.00  0.00    -0.235 N 
ATOM     12  H           0     133.080 130.523 146.355  0.00  0.00     0.174 HD
ATOM     13  H           0     134.499 130.975 147.133  0.00  0.00     0.174 HD
ATOM     14  C           0     135.604 132.856 143.826  0.00  0.00     0.217 C 
ATOM     15  N           0     135.429 132.437 145.225  0.00  0.00    -0.191 N 
ATOM     16  N           0     135.740 134.308 143.719  0.00  0.00    -0.183 N 
ATOM     17  C           0     137.135 134.626 144.061  0.00  0.00     0.150 C 
ATOM     18  C           0     137.963 133.358 143.766  0.00  0.00     0.093 C 
ATOM     19  C           0     136.934 132.304 143.274  0.00  0.00     0.209 C 
ATOM     20  H           0     132.743 135.077 142.942  0.00  0.00     0.178 HD
ATOM     21  H           0     136.033 132.634 145.957  0.00  0.00     0.180 HD
ENDROOT
BRANCH   6  22
ATOM     22  C           0     134.389 133.425 140.890  0.00  0.00     0.208 C 
BRANCH  22  23
ATOM     23  O           0     133.431 133.768 139.855  0.00  0.00    -0.302 OA
BRANCH  23  24
ATOM     24  C           0     133.572 134.914 139.161  0.00  0.00     0.358 C 
ATOM     25  N           0     133.543 136.098 139.804  0.00  0.00    -0.346 N 
ATOM     26  H           0     133.421 136.125 140.766  0.00  0.00     0.161 HD
ATOM     27  H           0     133.646 136.924 139.305  0.00  0.00     0.161 HD
ATOM     28  O           0     133.726 134.881 137.957  0.00  0.00    -0.239 OA
ENDBRANCH  23  24
ENDBRANCH  22  23
ENDBRANCH   6  22
BRANCH  19  29
ATOM     29  O           0     137.224 131.016 143.820  0.00  0.00    -0.362 OA
ATOM     30  H           0     137.125 130.379 143.100  0.00  0.00     0.213 HD
ENDBRANCH  19  29
BRANCH  19  31
ATOM     31  O           0     136.902 132.255 141.846  0.00  0.00    -0.362 OA
ATOM     32  H           0     135.971 132.298 141.586  0.00  0.00     0.213 HD
ENDBRANCH  19  31
TORSDOF 5
ENDMDL
MODEL 2
REMARK VINA RESULT:      -7.0      3.033      4.425
REMARK  5 active torsions:
REMARK  status: ('A' for Active; 'I' for Inactive)
REMARK    1  A    between atoms: C_6  and  C_7 
REMARK    2  A    between atoms: C_7  and  O_8 
REMARK    3  A    between atoms: O_8  and  C_9 
REMARK       I    between atoms: C_9  and  N_10 
REMARK    4  A    between atoms: C_24  and  O_25 
REMARK    5  A    between atoms: C_24  and  O_26 
ROOT
ATOM      1  N           0     136.013 134.349 147.120  0.00  0.00    -0.235 N 
ATOM      2  H           0     136.211 135.180 146.661  0.00  0.00     0.174 HD
ATOM      3  H           0     136.158 134.278 148.077  0.00  0.00     0.174 HD
ATOM      4  C           0     135.546 133.330 146.454  0.00  0.00     0.672 C 
ATOM      5  N           0     135.317 133.386 145.091  0.00  0.00    -0.218 N 
ATOM      6  C           0     135.420 132.151 144.318  0.00  0.00     0.151 C 
ATOM      7  C           0     134.600 131.023 144.913  0.00  0.00     0.182 C 
ATOM      8  N           0     133.175 131.227 144.570  0.00  0.00    -0.211 N 
ATOM      9  C           0     132.654 131.703 143.287  0.00  0.00     0.169 C 
ATOM     10  C           0     132.431 130.888 145.674  0.00  0.00     0.672 C 
ATOM     11  N           0     131.160 130.598 145.639  0.00  0.00    -0.235 N 
ATOM     12  H           0     130.682 130.614 144.795  0.00  0.00     0.174 HD
ATOM     13  H           0     130.692 130.367 146.457  0.00  0.00     0.174 HD
ATOM     14  C           0     134.606 130.982 146.431  0.00  0.00     0.217 C 
ATOM     15  N           0     133.190 130.892 146.818  0.00  0.00    -0.191 N 
ATOM     16  N           0     135.256 132.132 147.060  0.00  0.00    -0.183 N 
ATOM     17  C           0     135.586 131.728 148.435  0.00  0.00     0.150 C 
ATOM     18  C           0     135.702 130.190 148.430  0.00  0.00     0.093 C 
ATOM     19  C           0     135.379 129.761 146.972  0.00  0.00     0.209 C 
ATOM     20  H           0     135.092 134.226 144.659  0.00  0.00     0.178 HD
ATOM     21  H           0     132.850 130.841 147.725  0.00  0.00     0.180 HD
ENDROOT
BRANCH   6  22
ATOM     22  C           0     136.887 131.720 144.270  0.00  0.00     0.208 C 
BRANCH  22  23
ATOM     23  O           0     137.481 132.165 143.022  0.00  0.00    -0.302 OA
BRANCH  23  24
ATOM     24  C           0     138.287 133.244 143.007  0.00  0.00     0.358 C 
ATOM     25  N           0     137.881 134.379 142.404  0.00  0.00    -0.346 N 
ATOM     26  H           0     137.009 134.419 141.981  0.00  0.00     0.161 HD
ATOM     27  H           0     138.460 135.157 142.394  0.00  0.00     0.161 HD
ATOM     28  O           0     139.379 133.195 143.538  0.00  0.00    -0.239 OA
ENDBRANCH  23  24
ENDBRANCH  22  23
ENDBRANCH   6  22
BRANCH  19  29
ATOM     29  O           0     134.565 128.588 146.956  0.00  0.00    -0.362 OA
ATOM     30  H           0     134.348 128.410 146.030  0.00  0.00     0.213 HD
ENDBRANCH  19  29
BRANCH  19  31
ATOM     31  O           0     136.580 129.557 146.226  0.00  0.00    -0.362 OA
ATOM     32  H           0     137.149 128.988 146.762  0.00  0.00     0.213 HD
ENDBRANCH  19  31
TORSDOF 5
ENDMDL
MODEL 3
REMARK VINA RESULT:      -7.0     10.012     11.729
REMARK  5 active torsions:
REMARK  status: ('A' for Active; 'I' for Inactive)
REMARK    1  A    between atoms: C_6  and  C_7 
REMARK    2  A    between atoms: C_7  and  O_8 
REMARK    3  A    between atoms: O_8  and  C_9 
REMARK       I    between atoms: C_9  and  N_10 
REMARK    4  A    between atoms: C_24  and  O_25 
REMARK    5  A    between atoms: C_24  and  O_26 
ROOT
ATOM      1  N           0     130.631 131.833 135.296  0.00  0.00    -0.235 N 
ATOM      2  H           0     129.814 132.224 135.643  0.00  0.00     0.174 HD
ATOM      3  H           0     131.485 132.061 135.694  0.00  0.00     0.174 HD
ATOM      4  C           0     130.580 130.994 134.300  0.00  0.00     0.672 C 
ATOM      5  N           0     129.385 130.632 133.704  0.00  0.00    -0.218 N 
ATOM      6  C           0     129.400 130.251 132.294  0.00  0.00     0.151 C 
ATOM      7  C           0     130.445 129.195 131.988  0.00  0.00     0.182 C 
ATOM      8  N           0     129.947 127.876 132.436  0.00  0.00    -0.211 N 
ATOM      9  C           0     128.575 127.381 132.308  0.00  0.00     0.169 C 
ATOM     10  C           0     131.006 127.201 132.993  0.00  0.00     0.672 C 
ATOM     11  N           0     131.041 125.908 133.164  0.00  0.00    -0.235 N 
ATOM     12  H           0     130.288 125.363 132.890  0.00  0.00     0.174 HD
ATOM     13  H           0     131.821 125.494 133.564  0.00  0.00     0.174 HD
ATOM     14  C           0     131.747 129.370 132.751  0.00  0.00     0.217 C 
ATOM     15  N           0     132.022 128.054 133.347  0.00  0.00    -0.191 N 
ATOM     16  N           0     131.709 130.418 133.771  0.00  0.00    -0.183 N 
ATOM     17  C           0     133.107 130.767 134.067  0.00  0.00     0.150 C 
ATOM     18  C           0     133.931 130.393 132.817  0.00  0.00     0.093 C 
ATOM     19  C           0     132.908 129.780 131.822  0.00  0.00     0.209 C 
ATOM     20  H           0     128.557 130.632 134.210  0.00  0.00     0.178 HD
ATOM     21  H           0     132.789 127.826 133.894  0.00  0.00     0.180 HD
ENDROOT
BRANCH   6  22
ATOM     22  C           0     129.692 131.492 131.449  0.00  0.00     0.208 C 
BRANCH  22  23
ATOM     23  O           0     128.441 132.094 131.025  0.00  0.00    -0.302 OA
BRANCH  23  24
ATOM     24  C           0     127.874 133.063 131.769  0.00  0.00     0.358 C 
ATOM     25  N           0     128.641 133.845 132.554  0.00  0.00    -0.346 N 
ATOM     26  H           0     129.601 133.710 132.584  0.00  0.00     0.161 HD
ATOM     27  H           0     128.233 134.544 133.089  0.00  0.00     0.161 HD
ATOM     28  O           0     126.672 133.233 131.732  0.00  0.00    -0.239 OA
ENDBRANCH  23  24
ENDBRANCH  22  23
ENDBRANCH   6  22
BRANCH  19  29
ATOM     29  O           0     133.463 128.644 131.158  0.00  0.00    -0.362 OA
ATOM     30  H           0     133.391 128.812 130.209  0.00  0.00     0.213 HD
ENDBRANCH  19  29
BRANCH  19  31
ATOM     31  O           0     132.473 130.759 130.876  0.00  0.00    -0.362 OA
ATOM     32  H           0     131.807 130.332 130.320  0.00  0.00     0.213 HD
ENDBRANCH  19  31
TORSDOF 5
ENDMDL
MODEL 4
REMARK VINA RESULT:      -6.7      3.005      6.235
REMARK  5 active torsions:
REMARK  status: ('A' for Active; 'I' for Inactive)
REMARK    1  A    between atoms: C_6  and  C_7 
REMARK    2  A    between atoms: C_7  and  O_8 
REMARK    3  A    between atoms: O_8  and  C_9 
REMARK       I    between atoms: C_9  and  N_10 
REMARK    4  A    between atoms: C_24  and  O_25 
REMARK    5  A    between atoms: C_24  and  O_26 
ROOT
ATOM      1  N           0     131.063 131.061 145.769  0.00  0.00    -0.235 N 
ATOM      2  H           0     130.562 130.786 146.552  0.00  0.00     0.174 HD
ATOM      3  H           0     130.595 131.287 144.949  0.00  0.00     0.174 HD
ATOM      4  C           0     132.364 131.133 145.818  0.00  0.00     0.672 C 
ATOM      5  N           0     133.074 130.827 146.964  0.00  0.00    -0.218 N 
ATOM      6  C           0     134.433 130.313 146.823  0.00  0.00     0.151 C 
ATOM      7  C           0     135.293 131.182 145.925  0.00  0.00     0.182 C 
ATOM      8  N           0     135.725 132.379 146.679  0.00  0.00    -0.211 N 
ATOM      9  C           0     136.142 132.414 148.082  0.00  0.00     0.169 C 
ATOM     10  C           0     135.666 133.452 145.822  0.00  0.00     0.672 C 
ATOM     11  N           0     136.297 134.577 146.013  0.00  0.00    -0.235 N 
ATOM     12  H           0     136.852 134.693 146.800  0.00  0.00     0.174 HD
ATOM     13  H           0     136.212 135.296 145.368  0.00  0.00     0.174 HD
ATOM     14  C           0     134.559 131.753 144.724  0.00  0.00     0.217 C 
ATOM     15  N           0     134.859 133.193 144.741  0.00  0.00    -0.191 N 
ATOM     16  N           0     133.116 131.512 144.733  0.00  0.00    -0.183 N 
ATOM     17  C           0     132.652 131.695 143.349  0.00  0.00     0.150 C 
ATOM     18  C           0     133.867 131.434 142.435  0.00  0.00     0.093 C 
ATOM     19  C           0     135.045 131.129 143.400  0.00  0.00     0.209 C 
ATOM     20  H           0     132.679 130.952 147.842  0.00  0.00     0.178 HD
ATOM     21  H           0     134.545 133.847 144.098  0.00  0.00     0.180 HD
ENDROOT
BRANCH   6  22
ATOM     22  C           0     134.370 128.904 146.229  0.00  0.00     0.208 C 
BRANCH  22  23
ATOM     23  O           0     133.892 127.976 147.239  0.00  0.00    -0.302 OA
BRANCH  23  24
ATOM     24  C           0     132.702 127.366 147.083  0.00  0.00     0.358 C 
ATOM     25  N           0     132.638 126.021 147.019  0.00  0.00    -0.346 N 
ATOM     26  H           0     133.448 125.493 147.084  0.00  0.00     0.161 HD
ATOM     27  H           0     131.780 125.581 146.907  0.00  0.00     0.161 HD
ATOM     28  O           0     131.686 128.027 147.001  0.00  0.00    -0.239 OA
ENDBRANCH  23  24
ENDBRANCH  22  23
ENDBRANCH   6  22
BRANCH  19  29
ATOM     29  O           0     136.247 131.754 142.947  0.00  0.00    -0.362 OA
ATOM     30  H           0     136.490 131.323 142.116  0.00  0.00     0.213 HD
ENDBRANCH  19  29
BRANCH  19  31
ATOM     31  O           0     135.228 129.720 143.547  0.00  0.00    -0.362 OA
ATOM     32  H           0     136.096 129.593 143.955  0.00  0.00     0.213 HD
ENDBRANCH  19  31
TORSDOF 5
ENDMDL
MODEL 5
REMARK VINA RESULT:      -6.5      4.447      7.577
REMARK  5 active torsions:
REMARK  status: ('A' for Active; 'I' for Inactive)
REMARK    1  A    between atoms: C_6  and  C_7 
REMARK    2  A    between atoms: C_7  and  O_8 
REMARK    3  A    between atoms: O_8  and  C_9 
REMARK       I    between atoms: C_9  and  N_10 
REMARK    4  A    between atoms: C_24  and  O_25 
REMARK    5  A    between atoms: C_24  and  O_26 
ROOT
ATOM      1  N           0     133.204 126.979 147.390  0.00  0.00    -0.235 N 
ATOM      2  H           0     132.465 126.352 147.359  0.00  0.00     0.174 HD
ATOM      3  H           0     134.080 126.682 147.682  0.00  0.00     0.174 HD
ATOM      4  C           0     133.023 128.219 147.031  0.00  0.00     0.672 C 
ATOM      5  N           0     131.795 128.688 146.601  0.00  0.00    -0.218 N 
ATOM      6  C           0     131.472 130.095 146.823  0.00  0.00     0.151 C 
ATOM      7  C           0     132.560 131.026 146.323  0.00  0.00     0.182 C 
ATOM      8  N           0     132.463 131.140 144.851  0.00  0.00    -0.211 N 
ATOM      9  C           0     131.227 131.228 144.070  0.00  0.00     0.169 C 
ATOM     10  C           0     133.742 131.148 144.351  0.00  0.00     0.672 C 
ATOM     11  N           0     134.062 131.587 143.166  0.00  0.00    -0.235 N 
ATOM     12  H           0     133.375 131.937 142.577  0.00  0.00     0.174 HD
ATOM     13  H           0     134.986 131.565 142.874  0.00  0.00     0.174 HD
ATOM     14  C           0     133.971 130.516 146.557  0.00  0.00     0.217 C 
ATOM     15  N           0     134.643 130.637 145.253  0.00  0.00    -0.191 N 
ATOM     16  N           0     134.037 129.145 147.062  0.00  0.00    -0.183 N 
ATOM     17  C           0     135.373 128.981 147.658  0.00  0.00     0.150 C 
ATOM     18  C           0     135.856 130.390 148.058  0.00  0.00     0.093 C 
ATOM     19  C           0     134.720 131.352 147.615  0.00  0.00     0.209 C 
ATOM     20  H           0     131.163 128.096 146.163  0.00  0.00     0.178 HD
ATOM     21  H           0     135.563 130.400 145.064  0.00  0.00     0.180 HD
ENDROOT
BRANCH   6  22
ATOM     22  C           0     131.276 130.327 148.322  0.00  0.00     0.208 C 
BRANCH  22  23
ATOM     23  O           0     131.146 129.047 148.996  0.00  0.00    -0.302 OA
BRANCH  23  24
ATOM     24  C           0     131.747 128.849 150.185  0.00  0.00     0.358 C 
ATOM     25  N           0     131.146 128.092 151.125  0.00  0.00    -0.346 N 
ATOM     26  H           0     130.282 127.691 150.946  0.00  0.00     0.161 HD
ATOM     27  H           0     131.579 127.949 151.981  0.00  0.00     0.161 HD
ATOM     28  O           0     132.830 129.351 150.410  0.00  0.00    -0.239 OA
ENDBRANCH  23  24
ENDBRANCH  22  23
ENDBRANCH   6  22
BRANCH  19  29
ATOM     29  O           0     135.258 132.545 147.042  0.00  0.00    -0.362 OA
ATOM     30  H           0     134.934 132.589 146.132  0.00  0.00     0.213 HD
ENDBRANCH  19  29
BRANCH  19  31
ATOM     31  O           0     133.858 131.659 148.712  0.00  0.00    -0.362 OA
ATOM     32  H           0     133.029 131.186 148.557  0.00  0.00     0.213 HD
ENDBRANCH  19  31
TORSDOF 5
ENDMDL
MODEL 6
REMARK VINA RESULT:      -6.5      4.280      6.842
REMARK  5 active torsions:
REMARK  status: ('A' for Active; 'I' for Inactive)
REMARK    1  A    between atoms: C_6  and  C_7 
REMARK    2  A    between atoms: C_7  and  O_8 
REMARK    3  A    between atoms: O_8  and  C_9 
REMARK       I    between atoms: C_9  and  N_10 
REMARK    4  A    between atoms: C_24  and  O_25 
REMARK    5  A    between atoms: C_24  and  O_26 
ROOT
ATOM      1  N           0     132.864 127.127 147.289  0.00  0.00    -0.235 N 
ATOM      2  H           0     133.116 126.647 146.485  0.00  0.00     0.174 HD
ATOM      3  H           0     132.469 126.649 148.036  0.00  0.00     0.174 HD
ATOM      4  C           0     133.063 128.413 147.370  0.00  0.00     0.672 C 
ATOM      5  N           0     133.628 129.135 146.336  0.00  0.00    -0.218 N 
ATOM      6  C           0     133.262 130.542 146.190  0.00  0.00     0.151 C 
ATOM      7  C           0     133.421 131.320 147.483  0.00  0.00     0.182 C 
ATOM      8  N           0     134.854 131.619 147.696  0.00  0.00    -0.211 N 
ATOM      9  C           0     135.818 132.012 146.667  0.00  0.00     0.169 C 
ATOM     10  C           0     135.115 131.461 149.036  0.00  0.00     0.672 C 
ATOM     11  N           0     136.148 131.972 149.645  0.00  0.00    -0.235 N 
ATOM     12  H           0     136.790 132.503 149.148  0.00  0.00     0.174 HD
ATOM     13  H           0     136.274 131.823 150.595  0.00  0.00     0.174 HD
ATOM     14  C           0     133.021 130.547 148.728  0.00  0.00     0.217 C 
ATOM     15  N           0     134.154 130.699 149.653  0.00  0.00    -0.191 N 
ATOM     16  N           0     132.718 129.136 148.486  0.00  0.00    -0.183 N 
ATOM     17  C           0     131.929 128.673 149.638  0.00  0.00     0.150 C 
ATOM     18  C           0     131.247 129.920 150.238  0.00  0.00     0.093 C 
ATOM     19  C           0     131.737 131.111 149.369  0.00  0.00     0.209 C 
ATOM     20  H           0     134.253 128.718 145.721  0.00  0.00     0.178 HD
ATOM     21  H           0     134.211 130.328 150.547  0.00  0.00     0.180 HD
ENDROOT
BRANCH   6  22
ATOM     22  C           0     131.803 130.629 145.739  0.00  0.00     0.208 C 
BRANCH  22  23
ATOM     23  O           0     131.732 130.464 144.298  0.00  0.00    -0.302 OA
BRANCH  23  24
ATOM     24  C           0     131.743 131.546 143.496  0.00  0.00     0.358 C 
ATOM     25  N           0     132.886 131.924 142.890  0.00  0.00    -0.346 N 
ATOM     26  H           0     133.701 131.417 143.032  0.00  0.00     0.161 HD
ATOM     27  H           0     132.893 132.703 142.312  0.00  0.00     0.161 HD
ATOM     28  O           0     130.722 132.180 143.318  0.00  0.00    -0.239 OA
ENDBRANCH  23  24
ENDBRANCH  22  23
ENDBRANCH   6  22
BRANCH  19  29
ATOM     29  O           0     132.024 132.249 150.183  0.00  0.00    -0.362 OA
ATOM     30  H           0     131.881 131.980 151.101  0.00  0.00     0.213 HD
ENDBRANCH  19  29
BRANCH  19  31
ATOM     31  O           0     130.774 131.435 148.364  0.00  0.00    -0.362 OA
ATOM     32  H           0     129.925 131.086 148.668  0.00  0.00     0.213 HD
ENDBRANCH  19  31
TORSDOF 5
ENDMDL
MODEL 7
REMARK VINA RESULT:      -6.4      3.663      6.082
REMARK  5 active torsions:
REMARK  status: ('A' for Active; 'I' for Inactive)
REMARK    1  A    between atoms: C_6  and  C_7 
REMARK    2  A    between atoms: C_7  and  O_8 
REMARK    3  A    between atoms: O_8  and  C_9 
REMARK       I    between atoms: C_9  and  N_10 
REMARK    4  A    between atoms: C_24  and  O_25 
REMARK    5  A    between atoms: C_24  and  O_26 
ROOT
ATOM      1  N           0     136.850 128.734 147.099  0.00  0.00    -0.235 N 
ATOM      2  H           0     136.407 127.872 147.136  0.00  0.00     0.174 HD
ATOM      3  H           0     137.734 128.842 147.486  0.00  0.00     0.174 HD
ATOM      4  C           0     136.262 129.746 146.525  0.00  0.00     0.672 C 
ATOM      5  N           0     135.007 129.640 145.955  0.00  0.00    -0.218 N 
ATOM      6  C           0     134.159 130.828 145.914  0.00  0.00     0.151 C 
ATOM      7  C           0     134.871 132.030 145.324  0.00  0.00     0.182 C 
ATOM      8  N           0     134.910 131.895 143.851  0.00  0.00    -0.211 N 
ATOM      9  C           0     133.831 131.390 143.000  0.00  0.00     0.169 C 
ATOM     10  C           0     136.143 132.329 143.428  0.00  0.00     0.672 C 
ATOM     11  N           0     136.411 132.691 142.204  0.00  0.00    -0.235 N 
ATOM     12  H           0     135.717 132.664 141.528  0.00  0.00     0.174 HD
ATOM     13  H           0     137.305 132.988 141.971  0.00  0.00     0.174 HD
ATOM     14  C           0     136.334 132.142 145.718  0.00  0.00     0.217 C 
ATOM     15  N           0     137.058 132.335 144.452  0.00  0.00    -0.191 N 
ATOM     16  N           0     136.847 130.987 146.453  0.00  0.00    -0.183 N 
ATOM     17  C           0     138.069 131.435 147.140  0.00  0.00     0.150 C 
ATOM     18  C           0     137.941 132.962 147.320  0.00  0.00     0.093 C 
ATOM     19  C           0     136.588 133.339 146.657  0.00  0.00     0.209 C 
ATOM     20  H           0     134.697 128.796 145.590  0.00  0.00     0.178 HD
ATOM     21  H           0     138.016 132.448 144.357  0.00  0.00     0.180 HD
ENDROOT
BRANCH   6  22
ATOM     22  C           0     133.718 131.169 147.339  0.00  0.00     0.208 C 
BRANCH  22  23
ATOM     23  O           0     132.502 130.441 147.656  0.00  0.00    -0.302 OA
BRANCH  23  24
ATOM     24  C           0     131.480 131.072 148.266  0.00  0.00     0.358 C 
ATOM     25  N           0     130.211 130.700 148.010  0.00  0.00    -0.346 N 
ATOM     26  H           0     130.032 129.979 147.386  0.00  0.00     0.161 HD
ATOM     27  H           0     129.474 131.153 148.450  0.00  0.00     0.161 HD
ATOM     28  O           0     131.703 131.974 149.048  0.00  0.00    -0.239 OA
ENDBRANCH  23  24
ENDBRANCH  22  23
ENDBRANCH   6  22
BRANCH  19  29
ATOM     29  O           0     136.706 134.557 145.920  0.00  0.00    -0.362 OA
ATOM     30  H           0     135.807 134.883 145.774  0.00  0.00     0.213 HD
ENDBRANCH  19  29
BRANCH  19  31
ATOM     31  O           0     135.553 133.436 147.637  0.00  0.00    -0.362 OA
ATOM     32  H           0     135.921 133.100 148.466  0.00  0.00     0.213 HD
ENDBRANCH  19  31
TORSDOF 5
ENDMDL
MODEL 8
REMARK VINA RESULT:      -6.3      2.824      3.990
REMARK  5 active torsions:
REMARK  status: ('A' for Active; 'I' for Inactive)
REMARK    1  A    between atoms: C_6  and  C_7 
REMARK    2  A    between atoms: C_7  and  O_8 
REMARK    3  A    between atoms: O_8  and  C_9 
REMARK       I    between atoms: C_9  and  N_10 
REMARK    4  A    between atoms: C_24  and  O_25 
REMARK    5  A    between atoms: C_24  and  O_26 
ROOT
ATOM      1  N           0     135.937 134.598 146.165  0.00  0.00    -0.235 N 
ATOM      2  H           0     135.252 135.088 145.684  0.00  0.00     0.174 HD
ATOM      3  H           0     136.645 135.077 146.622  0.00  0.00     0.174 HD
ATOM      4  C           0     135.902 133.295 146.202  0.00  0.00     0.672 C 
ATOM      5  N           0     134.910 132.568 145.571  0.00  0.00    -0.218 N 
ATOM      6  C           0     135.227 131.223 145.100  0.00  0.00     0.151 C 
ATOM      7  C           0     135.861 130.363 146.177  0.00  0.00     0.182 C 
ATOM      8  N           0     134.807 129.891 147.102  0.00  0.00    -0.211 N 
ATOM      9  C           0     133.464 129.446 146.729  0.00  0.00     0.169 C 
ATOM     10  C           0     135.320 129.947 148.376  0.00  0.00     0.672 C 
ATOM     11  N           0     134.832 129.289 149.391  0.00  0.00    -0.235 N 
ATOM     12  H           0     134.059 128.715 149.270  0.00  0.00     0.174 HD
ATOM     13  H           0     135.242 129.372 150.265  0.00  0.00     0.174 HD
ATOM     14  C           0     136.829 131.111 147.078  0.00  0.00     0.217 C 
ATOM     15  N           0     136.409 130.780 148.449  0.00  0.00    -0.191 N 
ATOM     16  N           0     136.853 132.557 146.865  0.00  0.00    -0.183 N 
ATOM     17  C           0     138.114 133.046 147.443  0.00  0.00     0.150 C 
ATOM     18  C           0     139.095 131.856 147.437  0.00  0.00     0.093 C 
ATOM     19  C           0     138.288 130.664 146.853  0.00  0.00     0.209 C 
ATOM     20  H           0     134.023 132.943 145.444  0.00  0.00     0.178 HD
ATOM     21  H           0     136.830 131.094 149.264  0.00  0.00     0.180 HD
ENDROOT
BRANCH   6  22
ATOM     22  C           0     136.196 131.328 143.921  0.00  0.00     0.208 C 
BRANCH  22  23
ATOM     23  O           0     135.485 131.816 142.753  0.00  0.00    -0.302 OA
BRANCH  23  24
ATOM     24  C           0     135.813 133.006 142.214  0.00  0.00     0.358 C 
ATOM     25  N           0     135.721 133.191 140.883  0.00  0.00    -0.346 N 
ATOM     26  H           0     135.420 132.467 140.312  0.00  0.00     0.161 HD
ATOM     27  H           0     135.956 134.049 140.495  0.00  0.00     0.161 HD
ATOM     28  O           0     136.189 133.914 142.929  0.00  0.00    -0.239 OA
ENDBRANCH  23  24
ENDBRANCH  22  23
ENDBRANCH   6  22
BRANCH  19  29
ATOM     29  O           0     138.574 129.459 147.564  0.00  0.00    -0.362 OA
ATOM     30  H           0     138.286 128.727 147.002  0.00  0.00     0.213 HD
ENDBRANCH  19  29
BRANCH  19  31
ATOM     31  O           0     138.554 130.507 145.458  0.00  0.00    -0.362 OA
ATOM     32  H           0     138.949 131.336 145.154  0.00  0.00     0.213 HD
ENDBRANCH  19  31
TORSDOF 5
ENDMDL
MODEL 9
REMARK VINA RESULT:      -6.2      4.754      7.057
REMARK  5 active torsions:
REMARK  status: ('A' for Active; 'I' for Inactive)
REMARK    1  A    between atoms: C_6  and  C_7 
REMARK    2  A    between atoms: C_7  and  O_8 
REMARK    3  A    between atoms: O_8  and  C_9 
REMARK       I    between atoms: C_9  and  N_10 
REMARK    4  A    between atoms: C_24  and  O_25 
REMARK    5  A    between atoms: C_24  and  O_26 
ROOT
ATOM      1  N           0     134.026 132.000 149.250  0.00  0.00    -0.235 N 
ATOM      2  H           0     133.488 131.666 149.985  0.00  0.00     0.174 HD
ATOM      3  H           0     133.939 132.923 148.966  0.00  0.00     0.174 HD
ATOM      4  C           0     134.872 131.209 148.650  0.00  0.00     0.672 C 
ATOM      5  N           0     135.035 129.888 149.024  0.00  0.00    -0.218 N 
ATOM      6  C           0     135.454 128.926 148.009  0.00  0.00     0.151 C 
ATOM      7  C           0     136.685 129.381 147.248  0.00  0.00     0.182 C 
ATOM      8  N           0     137.883 129.158 148.086  0.00  0.00    -0.211 N 
ATOM      9  C           0     138.134 127.998 148.945  0.00  0.00     0.169 C 
ATOM     10  C           0     138.717 130.236 147.912  0.00  0.00     0.672 C 
ATOM     11  N           0     139.990 130.229 148.194  0.00  0.00    -0.235 N 
ATOM     12  H           0     140.403 129.427 148.551  0.00  0.00     0.174 HD
ATOM     13  H           0     140.523 131.026 148.048  0.00  0.00     0.174 HD
ATOM     14  C           0     136.718 130.871 146.954  0.00  0.00     0.217 C 
ATOM     15  N           0     138.045 131.320 147.405  0.00  0.00    -0.191 N 
ATOM     16  N           0     135.651 131.634 147.602  0.00  0.00    -0.183 N 
ATOM     17  C           0     135.544 132.908 146.873  0.00  0.00     0.150 C 
ATOM     18  C           0     136.092 132.653 145.453  0.00  0.00     0.093 C 
ATOM     19  C           0     136.545 131.167 145.451  0.00  0.00     0.209 C 
ATOM     20  H           0     134.876 129.607 149.939  0.00  0.00     0.178 HD
ATOM     21  H           0     138.387 132.226 147.351  0.00  0.00     0.180 HD
ENDROOT
BRANCH   6  22
ATOM     22  C           0     134.308 128.726 147.015  0.00  0.00     0.208 C 
BRANCH  22  23
ATOM     23  O           0     133.067 128.526 147.743  0.00  0.00    -0.302 OA
BRANCH  23  24
ATOM     24  C           0     132.236 127.525 147.393  0.00  0.00     0.358 C 
ATOM     25  N           0     132.738 126.323 147.047  0.00  0.00    -0.346 N 
ATOM     26  H           0     133.697 126.178 147.049  0.00  0.00     0.161 HD
ATOM     27  H           0     132.139 125.602 146.796  0.00  0.00     0.161 HD
ATOM     28  O           0     131.034 127.705 147.392  0.00  0.00    -0.239 OA
ENDBRANCH  23  24
ENDBRANCH  22  23
ENDBRANCH   6  22
BRANCH  19  29
ATOM     29  O           0     137.779 131.013 144.749  0.00  0.00    -0.362 OA
ATOM     30  H           0     137.645 131.378 143.864  0.00  0.00     0.213 HD
ENDBRANCH  19  29
BRANCH  19  31
ATOM     31  O           0     135.533 130.330 144.889  0.00  0.00    -0.362 OA
ATOM     32  H           0     135.948 129.477 144.701  0.00  0.00     0.213 HD
ENDBRANCH  19  31
TORSDOF 5
ENDMDL
