# created with PyMOL 2.3.4
@<TRIPOS>MOLECULE
ligand_out_0001
32 34 1                 
SMALL
USER_CHARGES
@<TRIPOS>ATOM
1	   N	134.927	136.479	143.375	N.3	1	UNK0	-0.235	
2	   N	133.592	134.615	142.856	N.3	1	UNK0	-0.218	
3	   N	133.508	131.826	144.174	N.3	1	UNK0	-0.211	
4	   N	133.918	131.011	146.357	N.3	1	UNK0	-0.235	
5	   N	135.429	132.437	145.225	N.3	1	UNK0	-0.191	
6	   N	135.740	134.308	143.719	N.3	1	UNK0	-0.183	
7	   N	133.543	136.098	139.804	N.pl3	1	UNK0	-0.346	
8	   C	134.762	135.187	143.322	C.3	1	UNK0	0.672	
9	   C	133.665	133.297	142.232	C.3	1	UNK0	0.151	
10	   C	134.403	132.287	143.090	C.3	1	UNK0	0.182	
11	   C	132.077	131.540	144.052	C.3	1	UNK0	0.169	
12	   C	134.264	131.715	145.316	C.3	1	UNK0	0.672	
13	   C	135.604	132.856	143.826	C.3	1	UNK0	0.217	
14	   C	137.135	134.626	144.061	C.3	1	UNK0	0.150	
15	   C	137.963	133.358	143.766	C.3	1	UNK0	0.093	
16	   C	136.934	132.304	143.274	C.3	1	UNK0	0.209	
17	   C	134.389	133.425	140.890	C.2	1	UNK0	0.208	
18	   C	133.572	134.914	139.161	C.2	1	UNK0	0.358	
19	   O	133.431	133.768	139.855	O.2	1	UNK0	-0.302	
20	   O	133.726	134.881	137.957	O.co2	1	UNK0	-0.239	
21	   O	137.224	131.016	143.820	O.2	1	UNK0	-0.362	
22	   O	136.902	132.255	141.846	O.2	1	UNK0	-0.362	
23	   H	134.217	137.072	143.083	 H	1	UNK0	0.174	
24	   H	135.759	136.848	143.712	 H	1	UNK0	0.174	
25	   H	133.080	130.523	146.355	 H	1	UNK0	0.174	
26	   H	134.499	130.975	147.133	 H	1	UNK0	0.174	
27	   H	132.743	135.077	142.942	 H	1	UNK0	0.178	
28	   H	136.033	132.634	145.957	 H	1	UNK0	0.180	
29	   H	133.421	136.125	140.766	 H	1	UNK0	0.161	
30	   H	133.646	136.924	139.305	 H	1	UNK0	0.161	
31	   H	137.125	130.379	143.100	 H	1	UNK0	0.213	
32	   H	135.971	132.298	141.586	 H	1	UNK0	0.213	
@<TRIPOS>BOND
1 1 8 1
2 1 23 1
3 1 24 1
4 2 9 1
5 2 27 1
6 3 11 1
7 3 12 1
8 4 25 1
9 4 26 1
10 5 28 1
11 6 14 1
12 7 29 1
13 7 30 1
14 2 8 1
15 6 8 1
16 9 10 1
17 9 17 1
18 3 10 1
19 10 13 1
20 4 12 1
21 5 12 1
22 5 13 1
23 6 13 1
24 13 16 1
25 14 15 1
26 15 16 1
27 16 21 2
28 16 22 2
29 17 19 2
30 7 18 1
31 18 20 2
32 18 19 2
33 21 31 1
34 22 32 1
@<TRIPOS>SUBSTRUCTURE
1	UNK0	1	GROUP	1 ****	UNK
