# created with PyMOL 2.3.4
@<TRIPOS>MOLECULE
ligand_out_0001
30 32 1                 
SMALL
USER_CHARGES
@<TRIPOS>ATOM
1	   N	135.502	132.672	147.051	N.3	1	UNK0	-0.235	
2	   N	136.755	134.428	146.110	N.3	1	UNK0	-0.218	
3	   N	136.170	136.098	143.588	N.3	1	UNK0	-0.216	
4	   N	134.204	136.780	142.462	N.3	1	UNK0	-0.235	
5	   N	134.598	134.534	143.091	N.3	1	UNK0	-0.191	
6	   N	135.509	133.013	144.736	N.3	1	UNK0	-0.183	
7	   C	135.902	133.342	146.007	C.3	1	UNK0	0.672	
8	   C	137.632	134.727	144.983	C.3	1	UNK0	0.151	
9	   C	136.885	134.806	143.665	C.3	1	UNK0	0.180	
10	   C	134.945	135.860	143.014	C.3	1	UNK0	0.670	
11	   C	135.782	133.769	143.513	C.3	1	UNK0	0.217	
12	   C	134.783	131.809	144.296	C.3	1	UNK0	0.150	
13	   C	135.469	131.411	142.967	C.3	1	UNK0	0.093	
14	   C	136.129	132.714	142.449	C.3	1	UNK0	0.209	
15	   C	138.696	133.633	144.881	C.2	1	UNK0	0.206	
16	   C	140.508	132.749	146.219	C.2	1	UNK0	0.254	
17	   C	140.885	132.218	147.578	C.3	1	UNK0	0.126	
18	   O	139.491	133.615	146.095	O.2	1	UNK0	-0.320	
19	   O	141.124	132.397	145.241	O.co2	1	UNK0	-0.266	
20	   O	135.583	133.079	141.181	O.2	1	UNK0	-0.362	
21	   O	137.546	132.551	142.355	O.2	1	UNK0	-0.362	
22	   H	135.802	132.930	147.937	 H	1	UNK0	0.174	
23	   H	134.901	131.919	146.944	 H	1	UNK0	0.174	
24	   H	134.510	137.701	142.441	 H	1	UNK0	0.174	
25	   H	133.348	136.545	142.073	 H	1	UNK0	0.174	
26	   H	136.768	134.976	146.911	 H	1	UNK0	0.178	
27	   H	136.505	136.957	143.889	 H	1	UNK0	0.178	
28	   H	133.722	134.165	142.898	 H	1	UNK0	0.180	
29	   H	135.174	132.285	140.813	 H	1	UNK0	0.213	
30	   H	137.835	132.145	143.183	 H	1	UNK0	0.213	
@<TRIPOS>BOND
1 1 7 1
2 1 22 1
3 1 23 1
4 2 8 1
5 2 26 1
6 3 10 1
7 3 27 1
8 4 24 1
9 4 25 1
10 5 28 1
11 6 12 1
12 2 7 1
13 6 7 1
14 8 9 1
15 8 15 1
16 3 9 1
17 9 11 1
18 4 10 1
19 5 10 1
20 5 11 1
21 6 11 1
22 11 14 1
23 12 13 1
24 13 14 1
25 14 20 2
26 14 21 2
27 15 18 2
28 16 17 1
29 16 19 2
30 16 18 2
31 20 29 1
32 21 30 1
@<TRIPOS>SUBSTRUCTURE
1	UNK0	1	GROUP	1 ****	UNK
