# created with PyMOL 2.3.4
@<TRIPOS>MOLECULE
ligand_out_0001
32 34 1                 
SMALL
USER_CHARGES
@<TRIPOS>ATOM
1	   N	135.066	136.795	143.174	N.3	1	UNK0	-0.235	
2	   N	133.858	134.783	143.001	N.3	1	UNK0	-0.218	
3	   N	134.158	132.190	144.637	N.3	1	UNK0	-0.216	
4	   N	134.857	131.682	146.839	N.3	1	UNK0	-0.235	
5	   N	136.118	133.057	145.387	N.3	1	UNK0	-0.191	
6	   N	136.095	134.749	143.659	N.3	1	UNK0	-0.183	
7	   N	133.495	136.087	139.813	N.pl3	1	UNK0	-0.346	
8	   C	135.012	135.497	143.277	C.3	1	UNK0	0.672	
9	   C	133.992	133.408	142.528	C.3	1	UNK0	0.151	
10	   C	134.894	132.571	143.414	C.3	1	UNK0	0.180	
11	   C	135.033	132.274	145.692	C.3	1	UNK0	0.670	
12	   C	136.113	133.313	143.937	C.3	1	UNK0	0.217	
13	   C	137.491	135.195	143.819	C.3	1	UNK0	0.150	
14	   C	138.334	134.038	143.228	C.3	1	UNK0	0.093	
15	   C	137.418	132.791	143.310	C.3	1	UNK0	0.209	
16	   C	134.570	133.428	141.112	C.2	1	UNK0	0.208	
17	   C	133.689	134.837	139.348	C.2	1	UNK0	0.358	
18	   O	133.527	133.780	140.167	O.2	1	UNK0	-0.302	
19	   O	134.010	134.662	138.189	O.co2	1	UNK0	-0.239	
20	   O	138.011	131.792	144.141	O.2	1	UNK0	-0.362	
21	   O	137.167	132.270	142.003	O.2	1	UNK0	-0.362	
22	   H	134.281	137.293	142.897	 H	1	UNK0	0.174	
23	   H	135.891	137.264	143.378	 H	1	UNK0	0.174	
24	   H	134.066	131.140	146.989	 H	1	UNK0	0.174	
25	   H	135.517	131.783	147.543	 H	1	UNK0	0.174	
26	   H	132.985	135.186	143.121	 H	1	UNK0	0.178	
27	   H	133.225	131.927	144.687	 H	1	UNK0	0.178	
28	   H	136.777	133.385	146.019	 H	1	UNK0	0.180	
29	   H	133.238	136.226	140.738	 H	1	UNK0	0.161	
30	   H	133.611	136.847	139.222	 H	1	UNK0	0.161	
31	   H	138.408	131.137	143.551	 H	1	UNK0	0.213	
32	   H	136.377	132.720	141.670	 H	1	UNK0	0.213	
@<TRIPOS>BOND
1 1 8 1
2 1 22 1
3 1 23 1
4 2 9 1
5 2 26 1
6 3 11 1
7 3 27 1
8 4 24 1
9 4 25 1
10 5 28 1
11 6 13 1
12 7 29 1
13 7 30 1
14 2 8 1
15 6 8 1
16 9 10 1
17 9 16 1
18 3 10 1
19 10 12 1
20 4 11 1
21 5 11 1
22 5 12 1
23 6 12 1
24 12 15 1
25 13 14 1
26 14 15 1
27 15 20 2
28 15 21 2
29 16 18 2
30 7 17 1
31 17 19 2
32 17 18 2
33 20 31 1
34 21 32 1
@<TRIPOS>SUBSTRUCTURE
1	UNK0	1	GROUP	1 ****	UNK
