MODEL 1
REMARK VINA RESULT:      -7.9      0.000      0.000
REMARK  5 active torsions:
REMARK  status: ('A' for Active; 'I' for Inactive)
REMARK    1  A    between atoms: C_6  and  C_7 
REMARK    2  A    between atoms: C_7  and  O_8 
REMARK    3  A    between atoms: O_8  and  C_9 
REMARK       I    between atoms: C_9  and  N_10 
REMARK    4  A    between atoms: C_23  and  O_24 
REMARK    5  A    between atoms: C_23  and  O_25 
ROOT
ATOM      1  N           0     135.066 136.795 143.174  0.00  0.00    -0.235 N 
ATOM      2  H           0     134.281 137.293 142.897  0.00  0.00     0.174 HD
ATOM      3  H           0     135.891 137.264 143.378  0.00  0.00     0.174 HD
ATOM      4  C           0     135.012 135.497 143.277  0.00  0.00     0.672 C 
ATOM      5  N           0     133.858 134.783 143.001  0.00  0.00    -0.218 N 
ATOM      6  C           0     133.992 133.408 142.528  0.00  0.00     0.151 C 
ATOM      7  C           0     134.894 132.571 143.414  0.00  0.00     0.180 C 
ATOM      8  N           0     134.158 132.190 144.637  0.00  0.00    -0.216 N 
ATOM      9  C           0     135.033 132.274 145.692  0.00  0.00     0.670 C 
ATOM     10  N           0     134.857 131.682 146.839  0.00  0.00    -0.235 N 
ATOM     11  H           0     134.066 131.140 146.989  0.00  0.00     0.174 HD
ATOM     12  H           0     135.517 131.783 147.543  0.00  0.00     0.174 HD
ATOM     13  C           0     136.113 133.313 143.937  0.00  0.00     0.217 C 
ATOM     14  N           0     136.118 133.057 145.387  0.00  0.00    -0.191 N 
ATOM     15  N           0     136.095 134.749 143.659  0.00  0.00    -0.183 N 
ATOM     16  C           0     137.491 135.195 143.819  0.00  0.00     0.150 C 
ATOM     17  C           0     138.334 134.038 143.228  0.00  0.00     0.093 C 
ATOM     18  C           0     137.418 132.791 143.310  0.00  0.00     0.209 C 
ATOM     19  H           0     132.985 135.186 143.121  0.00  0.00     0.178 HD
ATOM     20  H           0     133.225 131.927 144.687  0.00  0.00     0.178 HD
ATOM     21  H           0     136.777 133.385 146.019  0.00  0.00     0.180 HD
ENDROOT
BRANCH   6  22
ATOM     22  C           0     134.570 133.428 141.112  0.00  0.00     0.208 C 
BRANCH  22  23
ATOM     23  O           0     133.527 133.780 140.167  0.00  0.00    -0.302 OA
BRANCH  23  24
ATOM     24  C           0     133.689 134.837 139.348  0.00  0.00     0.358 C 
ATOM     25  N           0     133.495 136.087 139.813  0.00  0.00    -0.346 N 
ATOM     26  H           0     133.238 136.226 140.738  0.00  0.00     0.161 HD
ATOM     27  H           0     133.611 136.847 139.222  0.00  0.00     0.161 HD
ATOM     28  O           0     134.010 134.662 138.189  0.00  0.00    -0.239 OA
ENDBRANCH  23  24
ENDBRANCH  22  23
ENDBRANCH   6  22
BRANCH  18  29
ATOM     29  O           0     138.011 131.792 144.141  0.00  0.00    -0.362 OA
ATOM     30  H           0     138.408 131.137 143.551  0.00  0.00     0.213 HD
ENDBRANCH  18  29
BRANCH  18  31
ATOM     31  O           0     137.167 132.270 142.003  0.00  0.00    -0.362 OA
ATOM     32  H           0     136.377 132.720 141.670  0.00  0.00     0.213 HD
ENDBRANCH  18  31
TORSDOF 5
ENDMDL
MODEL 2
REMARK VINA RESULT:      -7.7      1.916      5.508
REMARK  5 active torsions:
REMARK  status: ('A' for Active; 'I' for Inactive)
REMARK    1  A    between atoms: C_6  and  C_7 
REMARK    2  A    between atoms: C_7  and  O_8 
REMARK    3  A    between atoms: O_8  and  C_9 
REMARK       I    between atoms: C_9  and  N_10 
REMARK    4  A    between atoms: C_23  and  O_24 
REMARK    5  A    between atoms: C_23  and  O_25 
ROOT
ATOM      1  N           0     135.509 132.702 147.099  0.00  0.00    -0.235 N 
ATOM      2  H           0     135.807 132.956 147.986  0.00  0.00     0.174 HD
ATOM      3  H           0     134.899 131.956 146.988  0.00  0.00     0.174 HD
ATOM      4  C           0     135.925 133.364 146.056  0.00  0.00     0.672 C 
ATOM      5  N           0     136.791 134.438 146.162  0.00  0.00    -0.218 N 
ATOM      6  C           0     137.680 134.723 145.039  0.00  0.00     0.151 C 
ATOM      7  C           0     136.942 134.810 143.717  0.00  0.00     0.180 C 
ATOM      8  N           0     136.246 136.111 143.633  0.00  0.00    -0.216 N 
ATOM      9  C           0     135.022 135.889 143.051  0.00  0.00     0.670 C 
ATOM     10  N           0     134.297 136.818 142.494  0.00  0.00    -0.235 N 
ATOM     11  H           0     134.615 137.734 142.472  0.00  0.00     0.174 HD
ATOM     12  H           0     133.440 136.593 142.100  0.00  0.00     0.174 HD
ATOM     13  C           0     135.827 133.788 143.560  0.00  0.00     0.217 C 
ATOM     14  N           0     134.656 134.569 143.129  0.00  0.00    -0.191 N 
ATOM     15  N           0     135.536 133.039 144.782  0.00  0.00    -0.183 N 
ATOM     16  C           0     134.795 131.843 144.340  0.00  0.00     0.150 C 
ATOM     17  C           0     135.484 131.433 143.016  0.00  0.00     0.093 C 
ATOM     18  C           0     136.166 132.726 142.500  0.00  0.00     0.209 C 
ATOM     19  H           0     136.807 134.987 146.961  0.00  0.00     0.178 HD
ATOM     20  H           0     136.590 136.967 143.934  0.00  0.00     0.178 HD
ATOM     21  H           0     133.776 134.211 142.931  0.00  0.00     0.180 HD
ENDROOT
BRANCH   6  22
ATOM     22  C           0     138.730 133.614 144.946  0.00  0.00     0.208 C 
BRANCH  22  23
ATOM     23  O           0     138.713 132.828 146.166  0.00  0.00    -0.302 OA
BRANCH  23  24
ATOM     24  C           0     139.103 131.539 146.142  0.00  0.00     0.358 C 
ATOM     25  N           0     138.198 130.564 145.928  0.00  0.00    -0.346 N 
ATOM     26  H           0     137.264 130.790 145.791  0.00  0.00     0.161 HD
ATOM     27  H           0     138.479 129.636 145.911  0.00  0.00     0.161 HD
ATOM     28  O           0     140.273 131.256 146.312  0.00  0.00    -0.239 OA
ENDBRANCH  23  24
ENDBRANCH  22  23
ENDBRANCH   6  22
BRANCH  18  29
ATOM     29  O           0     135.632 133.096 141.228  0.00  0.00    -0.362 OA
ATOM     30  H           0     134.713 132.795 141.212  0.00  0.00     0.213 HD
ENDBRANCH  18  29
BRANCH  18  31
ATOM     31  O           0     137.581 132.543 142.414  0.00  0.00    -0.362 OA
ATOM     32  H           0     137.796 131.772 142.957  0.00  0.00     0.213 HD
ENDBRANCH  18  31
TORSDOF 5
ENDMDL
MODEL 3
REMARK VINA RESULT:      -7.5      2.592      3.713
REMARK  5 active torsions:
REMARK  status: ('A' for Active; 'I' for Inactive)
REMARK    1  A    between atoms: C_6  and  C_7 
REMARK    2  A    between atoms: C_7  and  O_8 
REMARK    3  A    between atoms: O_8  and  C_9 
REMARK       I    between atoms: C_9  and  N_10 
REMARK    4  A    between atoms: C_23  and  O_24 
REMARK    5  A    between atoms: C_23  and  O_25 
ROOT
ATOM      1  N           0     136.204 134.806 147.691  0.00  0.00    -0.235 N 
ATOM      2  H           0     135.350 134.728 148.144  0.00  0.00     0.174 HD
ATOM      3  H           0     136.749 135.599 147.816  0.00  0.00     0.174 HD
ATOM      4  C           0     136.622 133.844 146.916  0.00  0.00     0.672 C 
ATOM      5  N           0     135.884 132.691 146.709  0.00  0.00    -0.218 N 
ATOM      6  C           0     136.047 131.984 145.443  0.00  0.00     0.151 C 
ATOM      7  C           0     137.501 131.710 145.110  0.00  0.00     0.180 C 
ATOM      8  N           0     137.980 130.575 145.926  0.00  0.00    -0.216 N 
ATOM      9  C           0     139.264 130.863 146.322  0.00  0.00     0.670 C 
ATOM     10  N           0     140.120 129.972 146.735  0.00  0.00    -0.235 N 
ATOM     11  H           0     139.865 129.037 146.776  0.00  0.00     0.174 HD
ATOM     12  H           0     141.013 130.244 147.001  0.00  0.00     0.174 HD
ATOM     13  C           0     138.445 132.845 145.470  0.00  0.00     0.217 C 
ATOM     14  N           0     139.533 132.206 146.230  0.00  0.00    -0.191 N 
ATOM     15  N           0     137.817 133.911 146.250  0.00  0.00    -0.183 N 
ATOM     16  C           0     138.713 135.074 146.113  0.00  0.00     0.150 C 
ATOM     17  C           0     139.194 135.016 144.642  0.00  0.00     0.093 C 
ATOM     18  C           0     139.018 133.535 144.220  0.00  0.00     0.209 C 
ATOM     19  H           0     135.276 132.362 147.389  0.00  0.00     0.178 HD
ATOM     20  H           0     137.481 129.772 146.142  0.00  0.00     0.178 HD
ATOM     21  H           0     140.308 132.656 146.600  0.00  0.00     0.180 HD
ENDROOT
BRANCH   6  22
ATOM     22  C           0     135.435 132.829 144.324  0.00  0.00     0.208 C 
BRANCH  22  23
ATOM     23  O           0     135.471 132.084 143.079  0.00  0.00    -0.302 OA
BRANCH  23  24
ATOM     24  C           0     134.955 132.621 141.957  0.00  0.00     0.358 C 
ATOM     25  N           0     135.771 133.181 141.041  0.00  0.00    -0.346 N 
ATOM     26  H           0     136.730 133.197 141.190  0.00  0.00     0.161 HD
ATOM     27  H           0     135.399 133.568 140.233  0.00  0.00     0.161 HD
ATOM     28  O           0     133.755 132.600 141.770  0.00  0.00    -0.239 OA
ENDBRANCH  23  24
ENDBRANCH  22  23
ENDBRANCH   6  22
BRANCH  18  29
ATOM     29  O           0     140.279 132.966 143.863  0.00  0.00    -0.362 OA
ATOM     30  H           0     140.422 133.168 142.928  0.00  0.00     0.213 HD
ENDBRANCH  18  29
BRANCH  18  31
ATOM     31  O           0     138.098 133.434 143.131  0.00  0.00    -0.362 OA
ATOM     32  H           0     137.742 134.321 142.983  0.00  0.00     0.213 HD
ENDBRANCH  18  31
TORSDOF 5
ENDMDL
MODEL 4
REMARK VINA RESULT:      -7.5      2.110      5.210
REMARK  5 active torsions:
REMARK  status: ('A' for Active; 'I' for Inactive)
REMARK    1  A    between atoms: C_6  and  C_7 
REMARK    2  A    between atoms: C_7  and  O_8 
REMARK    3  A    between atoms: O_8  and  C_9 
REMARK       I    between atoms: C_9  and  N_10 
REMARK    4  A    between atoms: C_23  and  O_24 
REMARK    5  A    between atoms: C_23  and  O_25 
ROOT
ATOM      1  N           0     135.151 132.477 146.968  0.00  0.00    -0.235 N 
ATOM      2  H           0     135.324 132.752 147.881  0.00  0.00     0.174 HD
ATOM      3  H           0     134.638 131.672 146.792  0.00  0.00     0.174 HD
ATOM      4  C           0     135.604 133.190 145.975  0.00  0.00     0.672 C 
ATOM      5  N           0     136.337 134.348 146.173  0.00  0.00    -0.218 N 
ATOM      6  C           0     137.305 134.736 145.152  0.00  0.00     0.151 C 
ATOM      7  C           0     136.707 134.759 143.758  0.00  0.00     0.180 C 
ATOM      8  N           0     135.891 135.981 143.600  0.00  0.00    -0.216 N 
ATOM      9  C           0     134.767 135.640 142.889  0.00  0.00     0.670 C 
ATOM     10  N           0     134.012 136.493 142.257  0.00  0.00    -0.235 N 
ATOM     11  H           0     134.233 137.438 142.269  0.00  0.00     0.174 HD
ATOM     12  H           0     133.230 136.184 141.773  0.00  0.00     0.174 HD
ATOM     13  C           0     135.730 133.628 143.483  0.00  0.00     0.217 C 
ATOM     14  N           0     134.535 134.287 142.928  0.00  0.00    -0.191 N 
ATOM     15  N           0     135.390 132.840 144.667  0.00  0.00    -0.183 N 
ATOM     16  C           0     134.830 131.578 144.148  0.00  0.00     0.150 C 
ATOM     17  C           0     135.696 131.257 142.906  0.00  0.00     0.093 C 
ATOM     18  C           0     136.290 132.619 142.466  0.00  0.00     0.209 C 
ATOM     19  H           0     136.209 134.886 146.969  0.00  0.00     0.178 HD
ATOM     20  H           0     136.110 136.865 143.935  0.00  0.00     0.178 HD
ATOM     21  H           0     133.725 133.841 142.637  0.00  0.00     0.180 HD
ENDROOT
BRANCH   6  22
ATOM     22  C           0     138.469 133.744 145.173  0.00  0.00     0.208 C 
BRANCH  22  23
ATOM     23  O           0     139.675 134.421 145.613  0.00  0.00    -0.302 OA
BRANCH  23  24
ATOM     24  C           0     139.927 135.681 145.209  0.00  0.00     0.358 C 
ATOM     25  N           0     140.072 136.664 146.119  0.00  0.00    -0.346 N 
ATOM     26  H           0     139.995 136.465 147.065  0.00  0.00     0.161 HD
ATOM     27  H           0     140.253 137.572 145.827  0.00  0.00     0.161 HD
ATOM     28  O           0     140.023 135.930 144.023  0.00  0.00    -0.239 OA
ENDBRANCH  23  24
ENDBRANCH  22  23
ENDBRANCH   6  22
BRANCH  18  29
ATOM     29  O           0     135.859 132.945 141.143  0.00  0.00    -0.362 OA
ATOM     30  H           0     136.015 133.892 141.024  0.00  0.00     0.213 HD
ENDBRANCH  18  29
BRANCH  18  31
ATOM     31  O           0     137.717 132.586 142.533  0.00  0.00    -0.362 OA
ATOM     32  H           0     138.023 133.497 142.417  0.00  0.00     0.213 HD
ENDBRANCH  18  31
TORSDOF 5
ENDMDL
MODEL 5
REMARK VINA RESULT:      -7.2      3.121      5.784
REMARK  5 active torsions:
REMARK  status: ('A' for Active; 'I' for Inactive)
REMARK    1  A    between atoms: C_6  and  C_7 
REMARK    2  A    between atoms: C_7  and  O_8 
REMARK    3  A    between atoms: O_8  and  C_9 
REMARK       I    between atoms: C_9  and  N_10 
REMARK    4  A    between atoms: C_23  and  O_24 
REMARK    5  A    between atoms: C_23  and  O_25 
ROOT
ATOM      1  N           0     138.808 130.501 145.969  0.00  0.00    -0.235 N 
ATOM      2  H           0     138.428 129.797 146.517  0.00  0.00     0.174 HD
ATOM      3  H           0     139.757 130.498 145.766  0.00  0.00     0.174 HD
ATOM      4  C           0     138.045 131.449 145.501  0.00  0.00     0.672 C 
ATOM      5  N           0     136.686 131.494 145.758  0.00  0.00    -0.218 N 
ATOM      6  C           0     136.028 132.797 145.774  0.00  0.00     0.151 C 
ATOM      7  C           0     136.327 133.618 144.534  0.00  0.00     0.180 C 
ATOM      8  N           0     135.519 133.106 143.407  0.00  0.00    -0.216 N 
ATOM      9  C           0     136.309 133.137 142.283  0.00  0.00     0.670 C 
ATOM     10  N           0     135.849 133.109 141.064  0.00  0.00    -0.235 N 
ATOM     11  H           0     134.893 133.065 140.907  0.00  0.00     0.174 HD
ATOM     12  H           0     136.464 133.134 140.314  0.00  0.00     0.174 HD
ATOM     13  C           0     137.760 133.498 144.040  0.00  0.00     0.217 C 
ATOM     14  N           0     137.642 133.200 142.603  0.00  0.00    -0.191 N 
ATOM     15  N           0     138.537 132.467 144.727  0.00  0.00    -0.183 N 
ATOM     16  C           0     139.948 132.797 144.456  0.00  0.00     0.150 C 
ATOM     17  C           0     140.000 134.342 144.518  0.00  0.00     0.093 C 
ATOM     18  C           0     138.547 134.805 144.240  0.00  0.00     0.209 C 
ATOM     19  H           0     136.183 130.681 145.922  0.00  0.00     0.178 HD
ATOM     20  H           0     134.598 132.804 143.451  0.00  0.00     0.178 HD
ATOM     21  H           0     138.380 133.073 141.987  0.00  0.00     0.180 HD
ENDROOT
BRANCH   6  22
ATOM     22  C           0     136.501 133.574 147.004  0.00  0.00     0.208 C 
BRANCH  22  23
ATOM     23  O           0     135.552 133.391 148.087  0.00  0.00    -0.302 OA
BRANCH  23  24
ATOM     24  C           0     135.245 132.150 148.511  0.00  0.00     0.358 C 
ATOM     25  N           0     133.959 131.749 148.547  0.00  0.00    -0.346 N 
ATOM     26  H           0     133.254 132.354 148.267  0.00  0.00     0.161 HD
ATOM     27  H           0     133.737 130.856 148.853  0.00  0.00     0.161 HD
ATOM     28  O           0     136.128 131.392 148.862  0.00  0.00    -0.239 OA
ENDBRANCH  23  24
ENDBRANCH  22  23
ENDBRANCH   6  22
BRANCH  18  29
ATOM     29  O           0     138.498 135.608 143.059  0.00  0.00    -0.362 OA
ATOM     30  H           0     138.526 135.000 142.307  0.00  0.00     0.213 HD
ENDBRANCH  18  29
BRANCH  18  31
ATOM     31  O           0     138.032 135.530 145.359  0.00  0.00    -0.362 OA
ATOM     32  H           0     138.779 135.999 145.756  0.00  0.00     0.213 HD
ENDBRANCH  18  31
TORSDOF 5
ENDMDL
MODEL 6
REMARK VINA RESULT:      -7.1      2.494      4.893
REMARK  5 active torsions:
REMARK  status: ('A' for Active; 'I' for Inactive)
REMARK    1  A    between atoms: C_6  and  C_7 
REMARK    2  A    between atoms: C_7  and  O_8 
REMARK    3  A    between atoms: O_8  and  C_9 
REMARK       I    between atoms: C_9  and  N_10 
REMARK    4  A    between atoms: C_23  and  O_24 
REMARK    5  A    between atoms: C_23  and  O_25 
ROOT
ATOM      1  N           0     135.873 134.699 146.936  0.00  0.00    -0.235 N 
ATOM      2  H           0     136.193 135.588 147.156  0.00  0.00     0.174 HD
ATOM      3  H           0     135.520 134.125 147.634  0.00  0.00     0.174 HD
ATOM      4  C           0     135.913 134.277 145.703  0.00  0.00     0.672 C 
ATOM      5  N           0     136.402 135.059 144.672  0.00  0.00    -0.218 N 
ATOM      6  C           0     136.994 134.391 143.517  0.00  0.00     0.151 C 
ATOM      7  C           0     136.094 133.315 142.940  0.00  0.00     0.180 C 
ATOM      8  N           0     135.019 133.953 142.152  0.00  0.00    -0.216 N 
ATOM      9  C           0     133.860 133.255 142.392  0.00  0.00     0.670 C 
ATOM     10  N           0     132.810 133.290 141.620  0.00  0.00    -0.235 N 
ATOM     11  H           0     132.818 133.834 140.817  0.00  0.00     0.174 HD
ATOM     12  H           0     132.023 132.772 141.849  0.00  0.00     0.174 HD
ATOM     13  C           0     135.348 132.502 143.986  0.00  0.00     0.217 C 
ATOM     14  N           0     133.943 132.517 143.546  0.00  0.00    -0.191 N 
ATOM     15  N           0     135.477 133.028 145.345  0.00  0.00    -0.183 N 
ATOM     16  C           0     135.099 131.913 146.233  0.00  0.00     0.150 C 
ATOM     17  C           0     135.696 130.659 145.549  0.00  0.00     0.093 C 
ATOM     18  C           0     135.858 131.052 144.058  0.00  0.00     0.209 C 
ATOM     19  H           0     136.352 136.027 144.715  0.00  0.00     0.178 HD
ATOM     20  H           0     135.113 134.723 141.570  0.00  0.00     0.178 HD
ATOM     21  H           0     133.204 132.078 143.994  0.00  0.00     0.180 HD
ENDROOT
BRANCH   6  22
ATOM     22  C           0     138.317 133.751 143.942  0.00  0.00     0.208 C 
BRANCH  22  23
ATOM     23  O           0     139.346 134.772 144.022  0.00  0.00    -0.302 OA
BRANCH  23  24
ATOM     24  C           0     139.618 135.364 145.200  0.00  0.00     0.358 C 
ATOM     25  N           0     139.641 134.633 146.332  0.00  0.00    -0.346 N 
ATOM     26  H           0     139.462 133.679 146.298  0.00  0.00     0.161 HD
ATOM     27  H           0     139.837 135.059 147.181  0.00  0.00     0.161 HD
ATOM     28  O           0     139.842 136.557 145.243  0.00  0.00    -0.239 OA
ENDBRANCH  23  24
ENDBRANCH  22  23
ENDBRANCH   6  22
BRANCH  18  29
ATOM     29  O           0     135.067 130.199 143.229  0.00  0.00    -0.362 OA
ATOM     30  H           0     135.477 129.323 143.258  0.00  0.00     0.213 HD
ENDBRANCH  18  29
BRANCH  18  31
ATOM     31  O           0     137.233 130.989 143.673  0.00  0.00    -0.362 OA
ATOM     32  H           0     137.640 130.291 144.204  0.00  0.00     0.213 HD
ENDBRANCH  18  31
TORSDOF 5
ENDMDL
MODEL 7
REMARK VINA RESULT:      -6.9      3.286      6.092
REMARK  5 active torsions:
REMARK  status: ('A' for Active; 'I' for Inactive)
REMARK    1  A    between atoms: C_6  and  C_7 
REMARK    2  A    between atoms: C_7  and  O_8 
REMARK    3  A    between atoms: O_8  and  C_9 
REMARK       I    between atoms: C_9  and  N_10 
REMARK    4  A    between atoms: C_23  and  O_24 
REMARK    5  A    between atoms: C_23  and  O_25 
ROOT
ATOM      1  N           0     139.074 130.439 145.953  0.00  0.00    -0.235 N 
ATOM      2  H           0     139.240 129.582 146.376  0.00  0.00     0.174 HD
ATOM      3  H           0     139.813 130.952 145.591  0.00  0.00     0.174 HD
ATOM      4  C           0     137.857 130.899 145.867  0.00  0.00     0.672 C 
ATOM      5  N           0     136.769 130.202 146.363  0.00  0.00    -0.218 N 
ATOM      6  C           0     135.604 130.963 146.805  0.00  0.00     0.151 C 
ATOM      7  C           0     135.125 131.955 145.763  0.00  0.00     0.180 C 
ATOM      8  N           0     134.384 131.232 144.708  0.00  0.00    -0.216 N 
ATOM      9  C           0     134.722 131.797 143.503  0.00  0.00     0.670 C 
ATOM     10  N           0     134.018 131.676 142.413  0.00  0.00    -0.235 N 
ATOM     11  H           0     133.197 131.159 142.422  0.00  0.00     0.174 HD
ATOM     12  H           0     134.314 132.102 141.594  0.00  0.00     0.174 HD
ATOM     13  C           0     136.244 132.654 145.010  0.00  0.00     0.217 C 
ATOM     14  N           0     135.895 132.506 143.588  0.00  0.00    -0.191 N 
ATOM     15  N           0     137.573 132.106 145.283  0.00  0.00    -0.183 N 
ATOM     16  C           0     138.522 133.148 144.852  0.00  0.00     0.150 C 
ATOM     17  C           0     137.847 134.477 145.271  0.00  0.00     0.093 C 
ATOM     18  C           0     136.336 134.147 145.373  0.00  0.00     0.209 C 
ATOM     19  H           0     136.780 129.234 146.416  0.00  0.00     0.178 HD
ATOM     20  H           0     133.770 130.493 144.842  0.00  0.00     0.178 HD
ATOM     21  H           0     136.404 132.852 142.839  0.00  0.00     0.180 HD
ENDROOT
BRANCH   6  22
ATOM     22  C           0     135.966 131.724 148.081  0.00  0.00     0.208 C 
BRANCH  22  23
ATOM     23  O           0     134.767 132.302 148.659  0.00  0.00    -0.302 OA
BRANCH  23  24
ATOM     24  C           0     133.863 131.510 149.267  0.00  0.00     0.358 C 
ATOM     25  N           0     132.545 131.739 149.100  0.00  0.00    -0.346 N 
ATOM     26  H           0     132.248 132.474 148.541  0.00  0.00     0.161 HD
ATOM     27  H           0     131.894 131.169 149.538  0.00  0.00     0.161 HD
ATOM     28  O           0     134.236 130.589 149.966  0.00  0.00    -0.239 OA
ENDBRANCH  23  24
ENDBRANCH  22  23
ENDBRANCH   6  22
BRANCH  18  29
ATOM     29  O           0     135.591 134.937 144.445  0.00  0.00    -0.362 OA
ATOM     30  H           0     136.133 135.711 144.237  0.00  0.00     0.213 HD
ENDBRANCH  18  29
BRANCH  18  31
ATOM     31  O           0     135.867 134.364 146.705  0.00  0.00    -0.362 OA
ATOM     32  H           0     134.927 134.583 146.637  0.00  0.00     0.213 HD
ENDBRANCH  18  31
TORSDOF 5
ENDMDL
MODEL 8
REMARK VINA RESULT:      -6.8      5.295      9.864
REMARK  5 active torsions:
REMARK  status: ('A' for Active; 'I' for Inactive)
REMARK    1  A    between atoms: C_6  and  C_7 
REMARK    2  A    between atoms: C_7  and  O_8 
REMARK    3  A    between atoms: O_8  and  C_9 
REMARK       I    between atoms: C_9  and  N_10 
REMARK    4  A    between atoms: C_23  and  O_24 
REMARK    5  A    between atoms: C_23  and  O_25 
ROOT
ATOM      1  N           0     131.398 132.151 134.945  0.00  0.00    -0.235 N 
ATOM      2  H           0     130.801 131.802 135.625  0.00  0.00     0.174 HD
ATOM      3  H           0     131.782 131.553 134.284  0.00  0.00     0.174 HD
ATOM      4  C           0     131.683 133.422 134.917  0.00  0.00     0.672 C 
ATOM      5  N           0     131.158 134.315 135.835  0.00  0.00    -0.218 N 
ATOM      6  C           0     131.934 135.509 136.161  0.00  0.00     0.151 C 
ATOM      7  C           0     132.380 136.269 134.928  0.00  0.00     0.180 C 
ATOM      8  N           0     131.236 137.033 134.387  0.00  0.00    -0.216 N 
ATOM      9  C           0     131.295 136.952 133.017  0.00  0.00     0.670 C 
ATOM     10  N           0     130.688 137.774 132.208  0.00  0.00    -0.235 N 
ATOM     11  H           0     130.153 138.500 132.566  0.00  0.00     0.174 HD
ATOM     12  H           0     130.772 137.660 131.248  0.00  0.00     0.174 HD
ATOM     13  C           0     132.808 135.381 133.771  0.00  0.00     0.217 C 
ATOM     14  N           0     132.072 135.898 132.605  0.00  0.00    -0.191 N 
ATOM     15  N           0     132.526 133.961 133.981  0.00  0.00    -0.183 N 
ATOM     16  C           0     133.382 133.246 133.016  0.00  0.00     0.150 C 
ATOM     17  C           0     134.706 134.047 133.012  0.00  0.00     0.093 C 
ATOM     18  C           0     134.322 135.464 133.511  0.00  0.00     0.209 C 
ATOM     19  H           0     130.297 134.153 136.251  0.00  0.00     0.178 HD
ATOM     20  H           0     130.566 137.505 134.904  0.00  0.00     0.178 HD
ATOM     21  H           0     132.128 135.554 131.700  0.00  0.00     0.180 HD
ENDROOT
BRANCH   6  22
ATOM     22  C           0     133.171 135.091 136.958  0.00  0.00     0.208 C 
BRANCH  22  23
ATOM     23  O           0     132.761 134.351 138.137  0.00  0.00    -0.302 OA
BRANCH  23  24
ATOM     24  C           0     133.063 134.817 139.364  0.00  0.00     0.358 C 
ATOM     25  N           0     133.501 136.083 139.515  0.00  0.00    -0.346 N 
ATOM     26  H           0     133.599 136.658 138.739  0.00  0.00     0.161 HD
ATOM     27  H           0     133.719 136.419 140.398  0.00  0.00     0.161 HD
ATOM     28  O           0     132.939 134.097 140.335  0.00  0.00    -0.239 OA
ENDBRANCH  23  24
ENDBRANCH  22  23
ENDBRANCH   6  22
BRANCH  18  29
ATOM     29  O           0     134.608 136.439 132.507  0.00  0.00    -0.362 OA
ATOM     30  H           0     135.440 136.863 132.759  0.00  0.00     0.213 HD
ENDBRANCH  18  29
BRANCH  18  31
ATOM     31  O           0     135.017 135.772 134.721  0.00  0.00    -0.362 OA
ATOM     32  H           0     135.132 134.938 135.197  0.00  0.00     0.213 HD
ENDBRANCH  18  31
TORSDOF 5
ENDMDL
MODEL 9
REMARK VINA RESULT:      -6.7      2.430      3.525
REMARK  5 active torsions:
REMARK  status: ('A' for Active; 'I' for Inactive)
REMARK    1  A    between atoms: C_6  and  C_7 
REMARK    2  A    between atoms: C_7  and  O_8 
REMARK    3  A    between atoms: O_8  and  C_9 
REMARK       I    between atoms: C_9  and  N_10 
REMARK    4  A    between atoms: C_23  and  O_24 
REMARK    5  A    between atoms: C_23  and  O_25 
ROOT
ATOM      1  N           0     139.967 135.689 143.886  0.00  0.00    -0.235 N 
ATOM      2  H           0     139.853 136.426 143.266  0.00  0.00     0.174 HD
ATOM      3  H           0     140.857 135.435 144.179  0.00  0.00     0.174 HD
ATOM      4  C           0     138.927 135.041 144.329  0.00  0.00     0.672 C 
ATOM      5  N           0     137.637 135.367 143.945  0.00  0.00    -0.218 N 
ATOM      6  C           0     136.630 134.310 143.936  0.00  0.00     0.151 C 
ATOM      7  C           0     136.580 133.541 145.242  0.00  0.00     0.180 C 
ATOM      8  N           0     135.873 134.351 146.257  0.00  0.00    -0.216 N 
ATOM      9  C           0     136.531 134.185 147.451  0.00  0.00     0.670 C 
ATOM     10  N           0     136.008 134.441 148.617  0.00  0.00    -0.235 N 
ATOM     11  H           0     135.098 134.770 148.678  0.00  0.00     0.174 HD
ATOM     12  H           0     136.529 134.300 149.423  0.00  0.00     0.174 HD
ATOM     13  C           0     137.942 133.283 145.864  0.00  0.00     0.217 C 
ATOM     14  N           0     137.808 133.716 147.265  0.00  0.00    -0.191 N 
ATOM     15  N           0     139.038 133.989 145.200  0.00  0.00    -0.183 N 
ATOM     16  C           0     140.266 133.291 145.624  0.00  0.00     0.150 C 
ATOM     17  C           0     139.866 131.796 145.651  0.00  0.00     0.093 C 
ATOM     18  C           0     138.325 131.793 145.813  0.00  0.00     0.209 C 
ATOM     19  H           0     137.409 136.274 143.689  0.00  0.00     0.178 HD
ATOM     20  H           0     135.088 134.900 146.107  0.00  0.00     0.178 HD
ATOM     21  H           0     138.501 133.675 147.941  0.00  0.00     0.180 HD
ENDROOT
BRANCH   6  22
ATOM     22  C           0     136.947 133.335 142.801  0.00  0.00     0.208 C 
BRANCH  22  23
ATOM     23  O           0     135.957 132.274 142.783  0.00  0.00    -0.302 OA
BRANCH  23  24
ATOM     24  C           0     134.804 132.440 142.108  0.00  0.00     0.358 C 
ATOM     25  N           0     133.721 131.706 142.432  0.00  0.00    -0.346 N 
ATOM     26  H           0     133.773 131.057 143.153  0.00  0.00     0.161 HD
ATOM     27  H           0     132.891 131.825 141.946  0.00  0.00     0.161 HD
ATOM     28  O           0     134.739 133.252 141.206  0.00  0.00    -0.239 OA
ENDBRANCH  23  24
ENDBRANCH  22  23
ENDBRANCH   6  22
BRANCH  18  29
ATOM     29  O           0     137.953 131.136 147.025  0.00  0.00    -0.362 OA
ATOM     30  H           0     137.957 131.809 147.720  0.00  0.00     0.213 HD
ENDBRANCH  18  29
BRANCH  18  31
ATOM     31  O           0     137.707 131.160 144.690  0.00  0.00    -0.362 OA
ATOM     32  H           0     136.867 130.797 145.003  0.00  0.00     0.213 HD
ENDBRANCH  18  31
TORSDOF 5
ENDMDL
