MODEL 1
REMARK VINA RESULT:      -7.5      0.000      0.000
REMARK  5 active torsions:
REMARK  status: ('A' for Active; 'I' for Inactive)
REMARK    1  A    between atoms: C_6  and  C_7 
REMARK    2  A    between atoms: C_7  and  O_8 
REMARK    3  A    between atoms: O_8  and  C_9 
REMARK       I    between atoms: C_9  and  N_10 
REMARK    4  A    between atoms: C_23  and  O_24 
REMARK    5  A    between atoms: C_23  and  O_25 
ROOT
ATOM      1  N           0     134.866 136.782 143.086  0.00  0.00    -0.235 N 
ATOM      2  H           0     134.066 137.254 142.808  0.00  0.00     0.174 HD
ATOM      3  H           0     135.676 137.277 143.288  0.00  0.00     0.174 HD
ATOM      4  C           0     134.854 135.483 143.192  0.00  0.00     0.672 C 
ATOM      5  N           0     133.724 134.732 142.920  0.00  0.00    -0.218 N 
ATOM      6  C           0     133.900 133.361 142.450  0.00  0.00     0.151 C 
ATOM      7  C           0     134.830 132.555 143.337  0.00  0.00     0.180 C 
ATOM      8  N           0     134.106 132.154 144.562  0.00  0.00    -0.216 N 
ATOM      9  C           0     134.980 132.269 145.616  0.00  0.00     0.670 C 
ATOM     10  N           0     134.824 131.675 146.766  0.00  0.00    -0.235 N 
ATOM     11  H           0     134.050 131.109 146.917  0.00  0.00     0.174 HD
ATOM     12  H           0     135.480 131.799 147.469  0.00  0.00     0.174 HD
ATOM     13  C           0     136.025 133.337 143.858  0.00  0.00     0.217 C 
ATOM     14  N           0     136.039 133.086 145.309  0.00  0.00    -0.191 N 
ATOM     15  N           0     135.961 134.771 143.575  0.00  0.00    -0.183 N 
ATOM     16  C           0     137.342 135.262 143.733  0.00  0.00     0.150 C 
ATOM     17  C           0     138.220 134.131 143.145  0.00  0.00     0.093 C 
ATOM     18  C           0     137.345 132.855 143.231  0.00  0.00     0.209 C 
ATOM     19  H           0     132.838 135.107 143.038  0.00  0.00     0.178 HD
ATOM     20  H           0     133.182 131.863 144.614  0.00  0.00     0.178 HD
ATOM     21  H           0     136.688 133.436 145.939  0.00  0.00     0.180 HD
ENDROOT
BRANCH   6  22
ATOM     22  C           0     134.477 133.394 141.034  0.00  0.00     0.208 C 
BRANCH  22  23
ATOM     23  O           0     133.427 133.734 140.091  0.00  0.00    -0.302 OA
BRANCH  23  24
ATOM     24  C           0     133.560 134.809 139.292  0.00  0.00     0.358 C 
ATOM     25  N           0     133.514 136.050 139.818  0.00  0.00    -0.346 N 
ATOM     26  H           0     133.384 136.168 140.772  0.00  0.00     0.161 HD
ATOM     27  H           0     133.610 136.824 139.242  0.00  0.00     0.161 HD
ATOM     28  O           0     133.723 134.661 138.097  0.00  0.00    -0.239 OA
ENDBRANCH  23  24
ENDBRANCH  22  23
ENDBRANCH   6  22
BRANCH  18  29
ATOM     29  O           0     137.970 131.878 144.065  0.00  0.00    -0.362 OA
ATOM     30  H           0     138.899 132.136 144.149  0.00  0.00     0.213 HD
ENDBRANCH  18  29
BRANCH  18  31
ATOM     31  O           0     137.109 132.323 141.926  0.00  0.00    -0.362 OA
ATOM     32  H           0     137.417 132.987 141.294  0.00  0.00     0.213 HD
ENDBRANCH  18  31
TORSDOF 5
ENDMDL
MODEL 2
REMARK VINA RESULT:      -7.2      2.434      3.497
REMARK  5 active torsions:
REMARK  status: ('A' for Active; 'I' for Inactive)
REMARK    1  A    between atoms: C_6  and  C_7 
REMARK    2  A    between atoms: C_7  and  O_8 
REMARK    3  A    between atoms: O_8  and  C_9 
REMARK       I    between atoms: C_9  and  N_10 
REMARK    4  A    between atoms: C_23  and  O_24 
REMARK    5  A    between atoms: C_23  and  O_25 
ROOT
ATOM      1  N           0     139.059 133.355 143.158  0.00  0.00    -0.235 N 
ATOM      2  H           0     139.446 133.858 142.425  0.00  0.00     0.174 HD
ATOM      3  H           0     139.514 132.568 143.499  0.00  0.00     0.174 HD
ATOM      4  C           0     137.931 133.736 143.689  0.00  0.00     0.672 C 
ATOM      5  N           0     137.247 134.853 143.242  0.00  0.00    -0.218 N 
ATOM      6  C           0     135.795 134.882 143.395  0.00  0.00     0.151 C 
ATOM      7  C           0     135.350 134.560 144.808  0.00  0.00     0.180 C 
ATOM      8  N           0     135.570 135.742 145.668  0.00  0.00    -0.216 N 
ATOM      9  C           0     136.031 135.292 146.881  0.00  0.00     0.670 C 
ATOM     10  N           0     135.991 135.986 147.983  0.00  0.00    -0.235 N 
ATOM     11  H           0     135.617 136.881 147.979  0.00  0.00     0.174 HD
ATOM     12  H           0     136.334 135.607 148.808  0.00  0.00     0.174 HD
ATOM     13  C           0     136.161 133.463 145.480  0.00  0.00     0.217 C 
ATOM     14  N           0     136.540 134.020 146.789  0.00  0.00    -0.191 N 
ATOM     15  N           0     137.344 133.054 144.722  0.00  0.00    -0.183 N 
ATOM     16  C           0     137.721 131.738 145.269  0.00  0.00     0.150 C 
ATOM     17  C           0     136.370 131.032 145.535  0.00  0.00     0.093 C 
ATOM     18  C           0     135.337 132.179 145.677  0.00  0.00     0.209 C 
ATOM     19  H           0     137.720 135.597 142.838  0.00  0.00     0.178 HD
ATOM     20  H           0     135.416 136.668 145.422  0.00  0.00     0.178 HD
ATOM     21  H           0     137.058 133.565 147.471  0.00  0.00     0.180 HD
ENDROOT
BRANCH   6  22
ATOM     22  C           0     135.178 133.861 142.438  0.00  0.00     0.208 C 
BRANCH  22  23
ATOM     23  O           0     133.733 133.988 142.460  0.00  0.00    -0.302 OA
BRANCH  23  24
ATOM     24  C           0     132.975 133.203 141.670  0.00  0.00     0.358 C 
ATOM     25  N           0     132.893 131.880 141.914  0.00  0.00    -0.346 N 
ATOM     26  H           0     133.380 131.492 142.658  0.00  0.00     0.161 HD
ATOM     27  H           0     132.348 131.315 141.344  0.00  0.00     0.161 HD
ATOM     28  O           0     132.365 133.689 140.738  0.00  0.00    -0.239 OA
ENDBRANCH  23  24
ENDBRANCH  22  23
ENDBRANCH   6  22
BRANCH  18  29
ATOM     29  O           0     134.744 132.156 146.976  0.00  0.00    -0.362 OA
ATOM     30  H           0     133.905 132.633 146.909  0.00  0.00     0.213 HD
ENDBRANCH  18  29
BRANCH  18  31
ATOM     31  O           0     134.332 132.073 144.666  0.00  0.00    -0.362 OA
ATOM     32  H           0     133.783 131.311 144.897  0.00  0.00     0.213 HD
ENDBRANCH  18  31
TORSDOF 5
ENDMDL
MODEL 3
REMARK VINA RESULT:      -6.9      1.926      5.634
REMARK  5 active torsions:
REMARK  status: ('A' for Active; 'I' for Inactive)
REMARK    1  A    between atoms: C_6  and  C_7 
REMARK    2  A    between atoms: C_7  and  O_8 
REMARK    3  A    between atoms: O_8  and  C_9 
REMARK       I    between atoms: C_9  and  N_10 
REMARK    4  A    between atoms: C_23  and  O_24 
REMARK    5  A    between atoms: C_23  and  O_25 
ROOT
ATOM      1  N           0     134.759 131.885 146.545  0.00  0.00    -0.235 N 
ATOM      2  H           0     134.988 131.923 147.487  0.00  0.00     0.174 HD
ATOM      3  H           0     134.089 131.256 146.235  0.00  0.00     0.174 HD
ATOM      4  C           0     135.348 132.681 145.697  0.00  0.00     0.672 C 
ATOM      5  N           0     136.307 133.598 146.091  0.00  0.00    -0.218 N 
ATOM      6  C           0     137.332 133.985 145.127  0.00  0.00     0.151 C 
ATOM      7  C           0     136.748 134.417 143.795  0.00  0.00     0.180 C 
ATOM      8  N           0     136.205 135.785 143.924  0.00  0.00    -0.216 N 
ATOM      9  C           0     135.032 135.834 143.212  0.00  0.00     0.670 C 
ATOM     10  N           0     134.470 136.935 142.800  0.00  0.00    -0.235 N 
ATOM     11  H           0     134.883 137.792 142.993  0.00  0.00     0.174 HD
ATOM     12  H           0     133.639 136.898 142.300  0.00  0.00     0.174 HD
ATOM     13  C           0     135.556 133.591 143.342  0.00  0.00     0.217 C 
ATOM     14  N           0     134.523 134.579 142.987  0.00  0.00    -0.191 N 
ATOM     15  N           0     135.062 132.660 144.357  0.00  0.00    -0.183 N 
ATOM     16  C           0     134.250 131.674 143.621  0.00  0.00     0.150 C 
ATOM     17  C           0     135.027 131.447 142.301  0.00  0.00     0.093 C 
ATOM     18  C           0     135.890 132.721 142.118  0.00  0.00     0.209 C 
ATOM     19  H           0     136.296 133.975 146.985  0.00  0.00     0.178 HD
ATOM     20  H           0     136.604 136.517 144.421  0.00  0.00     0.178 HD
ATOM     21  H           0     133.637 134.377 142.649  0.00  0.00     0.180 HD
ENDROOT
BRANCH   6  22
ATOM     22  C           0     138.264 132.794 144.894  0.00  0.00     0.208 C 
BRANCH  22  23
ATOM     23  O           0     138.760 132.310 146.169  0.00  0.00    -0.302 OA
BRANCH  23  24
ATOM     24  C           0     138.656 131.003 146.480  0.00  0.00     0.358 C 
ATOM     25  N           0     139.766 130.248 146.596  0.00  0.00    -0.346 N 
ATOM     26  H           0     140.640 130.645 146.456  0.00  0.00     0.161 HD
ATOM     27  H           0     139.691 129.307 146.820  0.00  0.00     0.161 HD
ATOM     28  O           0     137.561 130.507 146.656  0.00  0.00    -0.239 OA
ENDBRANCH  23  24
ENDBRANCH  22  23
ENDBRANCH   6  22
BRANCH  18  29
ATOM     29  O           0     135.533 133.395 140.910  0.00  0.00    -0.362 OA
ATOM     30  H           0     135.775 132.807 140.180  0.00  0.00     0.213 HD
ENDBRANCH  18  29
BRANCH  18  31
ATOM     31  O           0     137.279 132.386 142.111  0.00  0.00    -0.362 OA
ATOM     32  H           0     137.768 133.218 142.178  0.00  0.00     0.213 HD
ENDBRANCH  18  31
TORSDOF 5
ENDMDL
MODEL 4
REMARK VINA RESULT:      -6.8      5.276      9.795
REMARK  5 active torsions:
REMARK  status: ('A' for Active; 'I' for Inactive)
REMARK    1  A    between atoms: C_6  and  C_7 
REMARK    2  A    between atoms: C_7  and  O_8 
REMARK    3  A    between atoms: O_8  and  C_9 
REMARK       I    between atoms: C_9  and  N_10 
REMARK    4  A    between atoms: C_23  and  O_24 
REMARK    5  A    between atoms: C_23  and  O_25 
ROOT
ATOM      1  N           0     131.483 132.188 134.997  0.00  0.00    -0.235 N 
ATOM      2  H           0     130.906 131.841 135.694  0.00  0.00     0.174 HD
ATOM      3  H           0     131.863 131.586 134.337  0.00  0.00     0.174 HD
ATOM      4  C           0     131.746 133.464 134.942  0.00  0.00     0.672 C 
ATOM      5  N           0     131.226 134.363 135.857  0.00  0.00    -0.218 N 
ATOM      6  C           0     131.988 135.574 136.147  0.00  0.00     0.151 C 
ATOM      7  C           0     132.397 136.322 134.892  0.00  0.00     0.180 C 
ATOM      8  N           0     131.229 137.057 134.363  0.00  0.00    -0.216 N 
ATOM      9  C           0     131.261 136.955 132.993  0.00  0.00     0.670 C 
ATOM     10  N           0     130.624 137.753 132.184  0.00  0.00    -0.235 N 
ATOM     11  H           0     130.085 138.477 132.541  0.00  0.00     0.174 HD
ATOM     12  H           0     130.690 137.625 131.225  0.00  0.00     0.174 HD
ATOM     13  C           0     132.815 135.422 133.741  0.00  0.00     0.217 C 
ATOM     14  N           0     132.046 135.907 132.582  0.00  0.00    -0.191 N 
ATOM     15  N           0     132.561 134.001 133.980  0.00  0.00    -0.183 N 
ATOM     16  C           0     133.408 133.284 133.009  0.00  0.00     0.150 C 
ATOM     17  C           0     134.719 134.106 132.965  0.00  0.00     0.093 C 
ATOM     18  C           0     134.322 135.524 133.448  0.00  0.00     0.209 C 
ATOM     19  H           0     130.376 134.194 136.292  0.00  0.00     0.178 HD
ATOM     20  H           0     130.561 137.528 134.886  0.00  0.00     0.178 HD
ATOM     21  H           0     132.090 135.549 131.682  0.00  0.00     0.180 HD
ENDROOT
BRANCH   6  22
ATOM     22  C           0     133.248 135.190 136.924  0.00  0.00     0.208 C 
BRANCH  22  23
ATOM     23  O           0     132.883 134.366 138.062  0.00  0.00    -0.302 OA
BRANCH  23  24
ATOM     24  C           0     133.025 134.843 139.313  0.00  0.00     0.358 C 
ATOM     25  N           0     133.530 136.077 139.510  0.00  0.00    -0.346 N 
ATOM     26  H           0     133.793 136.621 138.750  0.00  0.00     0.161 HD
ATOM     27  H           0     133.633 136.421 140.411  0.00  0.00     0.161 HD
ATOM     28  O           0     132.696 134.162 140.264  0.00  0.00    -0.239 OA
ENDBRANCH  23  24
ENDBRANCH  22  23
ENDBRANCH   6  22
BRANCH  18  29
ATOM     29  O           0     134.571 136.488 132.424  0.00  0.00    -0.362 OA
ATOM     30  H           0     135.307 137.036 132.729  0.00  0.00     0.213 HD
ENDBRANCH  18  29
BRANCH  18  31
ATOM     31  O           0     135.036 135.864 134.639  0.00  0.00    -0.362 OA
ATOM     32  H           0     135.737 135.204 134.741  0.00  0.00     0.213 HD
ENDBRANCH  18  31
TORSDOF 5
ENDMDL
MODEL 5
REMARK VINA RESULT:      -6.8      2.789      4.131
REMARK  5 active torsions:
REMARK  status: ('A' for Active; 'I' for Inactive)
REMARK    1  A    between atoms: C_6  and  C_7 
REMARK    2  A    between atoms: C_7  and  O_8 
REMARK    3  A    between atoms: O_8  and  C_9 
REMARK       I    between atoms: C_9  and  N_10 
REMARK    4  A    between atoms: C_23  and  O_24 
REMARK    5  A    between atoms: C_23  and  O_25 
ROOT
ATOM      1  N           0     136.338 133.180 141.578  0.00  0.00    -0.235 N 
ATOM      2  H           0     136.555 133.968 141.055  0.00  0.00     0.174 HD
ATOM      3  H           0     135.924 132.413 141.152  0.00  0.00     0.174 HD
ATOM      4  C           0     136.608 133.150 142.853  0.00  0.00     0.672 C 
ATOM      5  N           0     137.203 134.216 143.506  0.00  0.00    -0.218 N 
ATOM      6  C           0     136.921 134.402 144.926  0.00  0.00     0.151 C 
ATOM      7  C           0     137.141 133.138 145.735  0.00  0.00     0.180 C 
ATOM      8  N           0     138.591 132.940 145.942  0.00  0.00    -0.216 N 
ATOM      9  C           0     138.847 131.596 145.818  0.00  0.00     0.670 C 
ATOM     10  N           0     139.915 131.008 146.280  0.00  0.00    -0.235 N 
ATOM     11  H           0     140.589 131.525 146.747  0.00  0.00     0.174 HD
ATOM     12  H           0     140.033 130.053 146.159  0.00  0.00     0.174 HD
ATOM     13  C           0     136.694 131.866 145.035  0.00  0.00     0.217 C 
ATOM     14  N           0     137.840 130.948 145.147  0.00  0.00    -0.191 N 
ATOM     15  N           0     136.316 132.063 143.635  0.00  0.00    -0.183 N 
ATOM     16  C           0     135.514 130.880 143.276  0.00  0.00     0.150 C 
ATOM     17  C           0     134.672 130.589 144.543  0.00  0.00     0.093 C 
ATOM     18  C           0     135.458 131.243 145.708  0.00  0.00     0.209 C 
ATOM     19  H           0     137.792 134.823 143.032  0.00  0.00     0.178 HD
ATOM     20  H           0     139.244 133.632 146.130  0.00  0.00     0.178 HD
ATOM     21  H           0     137.876 130.041 144.807  0.00  0.00     0.180 HD
ENDROOT
BRANCH   6  22
ATOM     22  C           0     135.465 134.842 145.087  0.00  0.00     0.208 C 
BRANCH  22  23
ATOM     23  O           0     135.312 136.199 144.595  0.00  0.00    -0.302 OA
BRANCH  23  24
ATOM     24  C           0     134.732 136.422 143.401  0.00  0.00     0.358 C 
ATOM     25  N           0     134.601 137.682 142.940  0.00  0.00    -0.346 N 
ATOM     26  H           0     134.924 138.428 143.469  0.00  0.00     0.161 HD
ATOM     27  H           0     134.182 137.842 142.079  0.00  0.00     0.161 HD
ATOM     28  O           0     134.328 135.487 142.738  0.00  0.00    -0.239 OA
ENDBRANCH  23  24
ENDBRANCH  22  23
ENDBRANCH   6  22
BRANCH  18  29
ATOM     29  O           0     135.850 130.253 146.660  0.00  0.00    -0.362 OA
ATOM     30  H           0     135.390 130.462 147.486  0.00  0.00     0.213 HD
ENDBRANCH  18  29
BRANCH  18  31
ATOM     31  O           0     134.670 132.256 146.335  0.00  0.00    -0.362 OA
ATOM     32  H           0     135.264 132.997 146.520  0.00  0.00     0.213 HD
ENDBRANCH  18  31
TORSDOF 5
ENDMDL
MODEL 6
REMARK VINA RESULT:      -6.8      2.732      3.911
REMARK  5 active torsions:
REMARK  status: ('A' for Active; 'I' for Inactive)
REMARK    1  A    between atoms: C_6  and  C_7 
REMARK    2  A    between atoms: C_7  and  O_8 
REMARK    3  A    between atoms: O_8  and  C_9 
REMARK       I    between atoms: C_9  and  N_10 
REMARK    4  A    between atoms: C_23  and  O_24 
REMARK    5  A    between atoms: C_23  and  O_25 
ROOT
ATOM      1  N           0     136.528 134.515 147.577  0.00  0.00    -0.235 N 
ATOM      2  H           0     136.070 135.101 148.199  0.00  0.00     0.174 HD
ATOM      3  H           0     137.205 133.899 147.900  0.00  0.00     0.174 HD
ATOM      4  C           0     136.232 134.551 146.308  0.00  0.00     0.672 C 
ATOM      5  N           0     135.271 135.408 145.799  0.00  0.00    -0.218 N 
ATOM      6  C           0     135.408 135.858 144.417  0.00  0.00     0.151 C 
ATOM      7  C           0     135.614 134.711 143.447  0.00  0.00     0.180 C 
ATOM      8  N           0     134.320 134.037 143.210  0.00  0.00    -0.216 N 
ATOM      9  C           0     134.561 132.686 143.153  0.00  0.00     0.670 C 
ATOM     10  N           0     133.751 131.819 142.612  0.00  0.00    -0.235 N 
ATOM     11  H           0     132.918 132.117 142.216  0.00  0.00     0.174 HD
ATOM     12  H           0     133.983 130.878 142.606  0.00  0.00     0.174 HD
ATOM     13  C           0     136.512 133.604 143.975  0.00  0.00     0.217 C 
ATOM     14  N           0     135.760 132.361 143.737  0.00  0.00    -0.191 N 
ATOM     15  N           0     136.855 133.746 145.390  0.00  0.00    -0.183 N 
ATOM     16  C           0     138.038 132.890 145.592  0.00  0.00     0.150 C 
ATOM     17  C           0     138.873 133.080 144.303  0.00  0.00     0.093 C 
ATOM     18  C           0     137.857 133.551 143.231  0.00  0.00     0.209 C 
ATOM     19  H           0     134.527 135.701 146.347  0.00  0.00     0.178 HD
ATOM     20  H           0     133.457 134.469 143.112  0.00  0.00     0.178 HD
ATOM     21  H           0     136.061 131.465 143.953  0.00  0.00     0.180 HD
ENDROOT
BRANCH   6  22
ATOM     22  C           0     136.606 136.805 144.323  0.00  0.00     0.208 C 
BRANCH  22  23
ATOM     23  O           0     136.158 138.173 144.502  0.00  0.00    -0.302 OA
BRANCH  23  24
ATOM     24  C           0     135.035 138.600 143.891  0.00  0.00     0.358 C 
ATOM     25  N           0     135.042 138.849 142.567  0.00  0.00    -0.346 N 
ATOM     26  H           0     135.855 138.721 142.053  0.00  0.00     0.161 HD
ATOM     27  H           0     134.234 139.157 142.127  0.00  0.00     0.161 HD
ATOM     28  O           0     134.017 138.760 144.535  0.00  0.00    -0.239 OA
ENDBRANCH  23  24
ENDBRANCH  22  23
ENDBRANCH   6  22
BRANCH  18  29
ATOM     29  O           0     137.801 132.615 142.154  0.00  0.00    -0.362 OA
ATOM     30  H           0     138.623 132.106 142.182  0.00  0.00     0.213 HD
ENDBRANCH  18  29
BRANCH  18  31
ATOM     31  O           0     138.209 134.849 142.747  0.00  0.00    -0.362 OA
ATOM     32  H           0     137.948 134.880 141.816  0.00  0.00     0.213 HD
ENDBRANCH  18  31
TORSDOF 5
ENDMDL
MODEL 7
REMARK VINA RESULT:      -6.5      7.164      9.640
REMARK  5 active torsions:
REMARK  status: ('A' for Active; 'I' for Inactive)
REMARK    1  A    between atoms: C_6  and  C_7 
REMARK    2  A    between atoms: C_7  and  O_8 
REMARK    3  A    between atoms: O_8  and  C_9 
REMARK       I    between atoms: C_9  and  N_10 
REMARK    4  A    between atoms: C_23  and  O_24 
REMARK    5  A    between atoms: C_23  and  O_25 
ROOT
ATOM      1  N           0     129.257 135.784 132.875  0.00  0.00    -0.235 N 
ATOM      2  H           0     128.378 135.381 132.795  0.00  0.00     0.174 HD
ATOM      3  H           0     129.446 136.626 132.430  0.00  0.00     0.174 HD
ATOM      4  C           0     130.182 135.198 133.582  0.00  0.00     0.672 C 
ATOM      5  N           0     129.960 134.000 134.238  0.00  0.00    -0.218 N 
ATOM      6  C           0     131.097 133.112 134.460  0.00  0.00     0.151 C 
ATOM      7  C           0     132.274 133.819 135.103  0.00  0.00     0.180 C 
ATOM      8  N           0     132.002 134.003 136.544  0.00  0.00    -0.216 N 
ATOM      9  C           0     132.467 135.246 136.898  0.00  0.00     0.670 C 
ATOM     10  N           0     132.729 135.610 138.122  0.00  0.00    -0.235 N 
ATOM     11  H           0     132.597 134.984 138.852  0.00  0.00     0.174 HD
ATOM     12  H           0     133.056 136.505 138.303  0.00  0.00     0.174 HD
ATOM     13  C           0     132.505 135.231 134.591  0.00  0.00     0.217 C 
ATOM     14  N           0     132.622 136.060 135.803  0.00  0.00    -0.191 N 
ATOM     15  N           0     131.439 135.726 133.720  0.00  0.00    -0.183 N 
ATOM     16  C           0     132.028 136.863 132.990  0.00  0.00     0.150 C 
ATOM     17  C           0     133.481 136.418 132.694  0.00  0.00     0.093 C 
ATOM     18  C           0     133.795 135.337 133.760  0.00  0.00     0.209 C 
ATOM     19  H           0     129.072 133.758 134.543  0.00  0.00     0.178 HD
ATOM     20  H           0     131.573 133.363 137.134  0.00  0.00     0.178 HD
ATOM     21  H           0     132.783 137.016 135.824  0.00  0.00     0.180 HD
ENDROOT
BRANCH   6  22
ATOM     22  C           0     131.542 132.535 133.115  0.00  0.00     0.208 C 
BRANCH  22  23
ATOM     23  O           0     132.729 131.721 133.306  0.00  0.00    -0.302 OA
BRANCH  23  24
ATOM     24  C           0     132.661 130.593 134.038  0.00  0.00     0.358 C 
ATOM     25  N           0     131.802 129.614 133.689  0.00  0.00    -0.346 N 
ATOM     26  H           0     131.232 129.723 132.912  0.00  0.00     0.161 HD
ATOM     27  H           0     131.753 128.801 134.217  0.00  0.00     0.161 HD
ATOM     28  O           0     133.375 130.456 135.011  0.00  0.00    -0.239 OA
ENDBRANCH  23  24
ENDBRANCH  22  23
ENDBRANCH   6  22
BRANCH  18  29
ATOM     29  O           0     134.890 135.751 134.580  0.00  0.00    -0.362 OA
ATOM     30  H           0     135.295 136.512 134.142  0.00  0.00     0.213 HD
ENDBRANCH  18  29
BRANCH  18  31
ATOM     31  O           0     134.085 134.087 133.131  0.00  0.00    -0.362 OA
ATOM     32  H           0     133.413 133.955 132.449  0.00  0.00     0.213 HD
ENDBRANCH  18  31
TORSDOF 5
ENDMDL
MODEL 8
REMARK VINA RESULT:      -6.4      4.811      7.033
REMARK  5 active torsions:
REMARK  status: ('A' for Active; 'I' for Inactive)
REMARK    1  A    between atoms: C_6  and  C_7 
REMARK    2  A    between atoms: C_7  and  O_8 
REMARK    3  A    between atoms: O_8  and  C_9 
REMARK       I    between atoms: C_9  and  N_10 
REMARK    4  A    between atoms: C_23  and  O_24 
REMARK    5  A    between atoms: C_23  and  O_25 
ROOT
ATOM      1  N           0     134.156 131.831 149.452  0.00  0.00    -0.235 N 
ATOM      2  H           0     133.690 131.494 150.232  0.00  0.00     0.174 HD
ATOM      3  H           0     134.056 132.761 149.191  0.00  0.00     0.174 HD
ATOM      4  C           0     134.921 131.039 148.756  0.00  0.00     0.672 C 
ATOM      5  N           0     135.101 129.707 149.089  0.00  0.00    -0.218 N 
ATOM      6  C           0     135.408 128.762 148.020  0.00  0.00     0.151 C 
ATOM      7  C           0     136.566 129.216 147.153  0.00  0.00     0.180 C 
ATOM      8  N           0     137.835 128.978 147.872  0.00  0.00    -0.216 N 
ATOM      9  C           0     138.658 130.049 147.626  0.00  0.00     0.670 C 
ATOM     10  N           0     139.952 130.030 147.783  0.00  0.00    -0.235 N 
ATOM     11  H           0     140.391 129.222 148.093  0.00  0.00     0.174 HD
ATOM     12  H           0     140.476 130.824 147.591  0.00  0.00     0.174 HD
ATOM     13  C           0     136.581 130.710 146.870  0.00  0.00     0.217 C 
ATOM     14  N           0     137.951 131.143 147.193  0.00  0.00    -0.191 N 
ATOM     15  N           0     135.596 131.468 147.643  0.00  0.00    -0.183 N 
ATOM     16  C           0     135.449 132.752 146.934  0.00  0.00     0.150 C 
ATOM     17  C           0     135.516 132.373 145.435  0.00  0.00     0.093 C 
ATOM     18  C           0     136.270 131.019 145.395  0.00  0.00     0.209 C 
ATOM     19  H           0     135.025 129.411 150.009  0.00  0.00     0.178 HD
ATOM     20  H           0     138.048 128.205 148.418  0.00  0.00     0.178 HD
ATOM     21  H           0     138.295 132.046 147.112  0.00  0.00     0.180 HD
ENDROOT
BRANCH   6  22
ATOM     22  C           0     134.169 128.593 147.140  0.00  0.00     0.208 C 
BRANCH  22  23
ATOM     23  O           0     133.320 127.552 147.691  0.00  0.00    -0.302 OA
BRANCH  23  24
ATOM     24  C           0     132.023 127.806 147.948  0.00  0.00     0.358 C 
ATOM     25  N           0     131.675 128.920 148.621  0.00  0.00    -0.346 N 
ATOM     26  H           0     132.359 129.540 148.921  0.00  0.00     0.161 HD
ATOM     27  H           0     130.740 129.103 148.807  0.00  0.00     0.161 HD
ATOM     28  O           0     131.167 127.030 147.573  0.00  0.00    -0.239 OA
ENDBRANCH  23  24
ENDBRANCH  22  23
ENDBRANCH   6  22
BRANCH  18  29
ATOM     29  O           0     137.477 131.143 144.641  0.00  0.00    -0.362 OA
ATOM     30  H           0     137.618 132.089 144.494  0.00  0.00     0.213 HD
ENDBRANCH  18  29
BRANCH  18  31
ATOM     31  O           0     135.435 130.001 144.840  0.00  0.00    -0.362 OA
ATOM     32  H           0     135.877 129.684 144.040  0.00  0.00     0.213 HD
ENDBRANCH  18  31
TORSDOF 5
ENDMDL
MODEL 9
REMARK VINA RESULT:      -6.3      3.346      4.977
REMARK  5 active torsions:
REMARK  status: ('A' for Active; 'I' for Inactive)
REMARK    1  A    between atoms: C_6  and  C_7 
REMARK    2  A    between atoms: C_7  and  O_8 
REMARK    3  A    between atoms: O_8  and  C_9 
REMARK       I    between atoms: C_9  and  N_10 
REMARK    4  A    between atoms: C_23  and  O_24 
REMARK    5  A    between atoms: C_23  and  O_25 
ROOT
ATOM      1  N           0     136.142 134.247 148.172  0.00  0.00    -0.235 N 
ATOM      2  H           0     135.774 135.059 147.791  0.00  0.00     0.174 HD
ATOM      3  H           0     136.453 134.241 149.092  0.00  0.00     0.174 HD
ATOM      4  C           0     136.215 133.162 147.453  0.00  0.00     0.672 C 
ATOM      5  N           0     135.781 133.118 146.140  0.00  0.00    -0.218 N 
ATOM      6  C           0     136.418 132.169 145.232  0.00  0.00     0.151 C 
ATOM      7  C           0     136.453 130.759 145.791  0.00  0.00     0.180 C 
ATOM      8  N           0     135.113 130.150 145.656  0.00  0.00    -0.216 N 
ATOM      9  C           0     134.872 129.422 146.796  0.00  0.00     0.670 C 
ATOM     10  N           0     133.980 128.477 146.887  0.00  0.00    -0.235 N 
ATOM     11  H           0     133.436 128.249 146.117  0.00  0.00     0.174 HD
ATOM     12  H           0     133.861 128.001 147.724  0.00  0.00     0.174 HD
ATOM     13  C           0     136.738 130.689 147.282  0.00  0.00     0.217 C 
ATOM     14  N           0     135.688 129.814 147.829  0.00  0.00    -0.191 N 
ATOM     15  N           0     136.732 131.993 147.947  0.00  0.00    -0.183 N 
ATOM     16  C           0     137.447 131.785 149.220  0.00  0.00     0.150 C 
ATOM     17  C           0     138.598 130.815 148.859  0.00  0.00     0.093 C 
ATOM     18  C           0     138.124 130.088 147.575  0.00  0.00     0.209 C 
ATOM     19  H           0     135.072 133.702 145.831  0.00  0.00     0.178 HD
ATOM     20  H           0     134.513 130.246 144.900  0.00  0.00     0.178 HD
ATOM     21  H           0     135.590 129.556 148.758  0.00  0.00     0.180 HD
ENDROOT
BRANCH   6  22
ATOM     22  C           0     137.853 132.628 144.964  0.00  0.00     0.208 C 
BRANCH  22  23
ATOM     23  O           0     138.103 132.627 143.535  0.00  0.00    -0.302 OA
BRANCH  23  24
ATOM     24  C           0     137.802 133.712 142.797  0.00  0.00     0.358 C 
ATOM     25  N           0     136.732 133.693 141.977  0.00  0.00    -0.346 N 
ATOM     26  H           0     136.180 132.897 141.918  0.00  0.00     0.161 HD
ATOM     27  H           0     136.515 134.474 141.444  0.00  0.00     0.161 HD
ATOM     28  O           0     138.493 134.708 142.870  0.00  0.00    -0.239 OA
ENDBRANCH  23  24
ENDBRANCH  22  23
ENDBRANCH   6  22
BRANCH  18  29
ATOM     29  O           0     138.023 128.682 147.808  0.00  0.00    -0.362 OA
ATOM     30  H           0     137.118 128.511 148.102  0.00  0.00     0.213 HD
ENDBRANCH  18  29
BRANCH  18  31
ATOM     31  O           0     139.019 130.353 146.493  0.00  0.00    -0.362 OA
ATOM     32  H           0     139.829 129.856 146.673  0.00  0.00     0.213 HD
ENDBRANCH  18  31
TORSDOF 5
ENDMDL
