MODEL 1
REMARK VINA RESULT:      -7.5      0.000      0.000
REMARK  7 active torsions:
REMARK  status: ('A' for Active; 'I' for Inactive)
REMARK    1  A    between atoms: C_6  and  C_7 
REMARK    2  A    between atoms: C_7  and  O_8 
REMARK    3  A    between atoms: O_8  and  C_9 
REMARK       I    between atoms: C_9  and  N_10 
REMARK    4  A    between atoms: C_22  and  O_23 
REMARK    5  A    between atoms: O_23  and  S_24 
REMARK    6  A    between atoms: C_28  and  O_29 
REMARK    7  A    between atoms: C_28  and  O_30 
ROOT
ATOM      1  N           0     137.371 132.705 142.443  0.00  0.00    -0.235 N 
ATOM      2  H           0     137.628 132.241 141.631  0.00  0.00     0.174 HD
ATOM      3  H           0     137.922 132.633 143.238  0.00  0.00     0.174 HD
ATOM      4  C           0     136.289 133.433 142.464  0.00  0.00     0.672 C 
ATOM      5  N           0     135.474 133.572 141.355  0.00  0.00    -0.218 N 
ATOM      6  C           0     134.053 133.829 141.569  0.00  0.00     0.151 C 
ATOM      7  C           0     133.804 134.987 142.516  0.00  0.00     0.180 C 
ATOM      8  N           0     134.035 136.259 141.800  0.00  0.00    -0.216 N 
ATOM      9  C           0     134.670 137.114 142.667  0.00  0.00     0.670 C 
ATOM     10  N           0     134.709 138.409 142.521  0.00  0.00    -0.235 N 
ATOM     11  H           0     134.270 138.825 141.762  0.00  0.00     0.174 HD
ATOM     12  H           0     135.177 138.956 143.172  0.00  0.00     0.174 HD
ATOM     13  C           0     134.770 135.048 143.689  0.00  0.00     0.220 C 
ATOM     14  N           0     135.259 136.436 143.705  0.00  0.00    -0.191 N 
ATOM     15  N           0     135.882 134.102 143.588  0.00  0.00    -0.180 N 
ATOM     16  C           0     136.421 133.987 144.956  0.00  0.00     0.183 C 
ATOM     17  C           0     135.169 134.016 145.864  0.00  0.00     0.227 C 
ATOM     18  C           0     134.077 134.723 145.022  0.00  0.00     0.238 C 
ATOM     19  H           0     135.837 133.501 140.458  0.00  0.00     0.178 HD
ATOM     20  H           0     133.783 136.455 140.883  0.00  0.00     0.178 HD
ATOM     21  H           0     135.889 136.810 144.342  0.00  0.00     0.180 HD
ENDROOT
BRANCH   6  22
ATOM     22  C           0     133.405 132.571 142.149  0.00  0.00     0.208 C 
BRANCH  22  23
ATOM     23  O           0     132.498 131.997 141.171  0.00  0.00    -0.302 OA
BRANCH  23  24
ATOM     24  C           0     131.435 132.704 140.742  0.00  0.00     0.358 C 
ATOM     25  N           0     131.397 133.160 139.474  0.00  0.00    -0.346 N 
ATOM     26  H           0     132.135 132.979 138.871  0.00  0.00     0.161 HD
ATOM     27  H           0     130.631 133.670 139.165  0.00  0.00     0.161 HD
ATOM     28  O           0     130.511 132.931 141.498  0.00  0.00    -0.239 OA
ENDBRANCH  23  24
ENDBRANCH  22  23
ENDBRANCH   6  22
BRANCH  18  29
ATOM     29  O           0     133.645 135.921 145.671  0.00  0.00    -0.360 OA
ATOM     30  H           0     134.442 136.417 145.903  0.00  0.00     0.213 HD
ENDBRANCH  18  29
BRANCH  18  31
ATOM     31  O           0     132.970 133.846 144.806  0.00  0.00    -0.360 OA
ATOM     32  H           0     133.301 132.944 144.920  0.00  0.00     0.213 HD
ENDBRANCH  18  31
BRANCH  17  33
ATOM     33  O           0     134.765 132.687 146.195  0.00  0.00    -0.263 OA
BRANCH  33  34
ATOM     34  S           0     134.585 132.643 147.705  0.00  0.00     0.262 S 
ATOM     35  O           0     133.247 133.168 148.024  0.00  0.00    -0.199 OA
ATOM     36  C           0     134.798 130.924 148.242  0.00  0.00     0.194 C 
ATOM     37  O           0     135.577 133.546 148.312  0.00  0.00    -0.199 OA
ENDBRANCH  33  34
ENDBRANCH  17  33
TORSDOF 7
ENDMDL
MODEL 2
REMARK VINA RESULT:      -7.1      2.568      4.337
REMARK  7 active torsions:
REMARK  status: ('A' for Active; 'I' for Inactive)
REMARK    1  A    between atoms: C_6  and  C_7 
REMARK    2  A    between atoms: C_7  and  O_8 
REMARK    3  A    between atoms: O_8  and  C_9 
REMARK       I    between atoms: C_9  and  N_10 
REMARK    4  A    between atoms: C_22  and  O_23 
REMARK    5  A    between atoms: O_23  and  S_24 
REMARK    6  A    between atoms: C_28  and  O_29 
REMARK    7  A    between atoms: C_28  and  O_30 
ROOT
ATOM      1  N           0     133.308 131.848 141.996  0.00  0.00    -0.235 N 
ATOM      2  H           0     132.542 132.159 141.488  0.00  0.00     0.174 HD
ATOM      3  H           0     133.568 130.914 141.958  0.00  0.00     0.174 HD
ATOM      4  C           0     133.993 132.687 142.722  0.00  0.00     0.672 C 
ATOM      5  N           0     133.666 134.029 142.803  0.00  0.00    -0.218 N 
ATOM      6  C           0     134.009 134.753 144.023  0.00  0.00     0.151 C 
ATOM      7  C           0     135.461 134.571 144.421  0.00  0.00     0.180 C 
ATOM      8  N           0     136.312 135.414 143.555  0.00  0.00    -0.216 N 
ATOM      9  C           0     137.442 134.694 143.256  0.00  0.00     0.670 C 
ATOM     10  N           0     138.556 135.223 142.831  0.00  0.00    -0.235 N 
ATOM     11  H           0     138.621 136.183 142.709  0.00  0.00     0.174 HD
ATOM     12  H           0     139.319 134.655 142.638  0.00  0.00     0.174 HD
ATOM     13  C           0     135.995 133.165 144.198  0.00  0.00     0.220 C 
ATOM     14  N           0     137.254 133.350 143.460  0.00  0.00    -0.191 N 
ATOM     15  N           0     135.078 132.295 143.461  0.00  0.00    -0.180 N 
ATOM     16  C           0     135.540 130.921 143.733  0.00  0.00     0.183 C 
ATOM     17  C           0     135.966 130.948 145.220  0.00  0.00     0.227 C 
ATOM     18  C           0     136.270 132.437 145.525  0.00  0.00     0.238 C 
ATOM     19  H           0     133.219 134.477 142.067  0.00  0.00     0.178 HD
ATOM     20  H           0     136.109 136.314 143.253  0.00  0.00     0.178 HD
ATOM     21  H           0     137.852 132.643 143.168  0.00  0.00     0.180 HD
ENDROOT
BRANCH   6  22
ATOM     22  C           0     133.120 134.251 145.162  0.00  0.00     0.208 C 
BRANCH  22  23
ATOM     23  O           0     133.344 135.062 146.345  0.00  0.00    -0.302 OA
BRANCH  23  24
ATOM     24  C           0     132.719 134.758 147.498  0.00  0.00     0.358 C 
ATOM     25  N           0     132.670 133.480 147.922  0.00  0.00    -0.346 N 
ATOM     26  H           0     133.086 132.779 147.395  0.00  0.00     0.161 HD
ATOM     27  H           0     132.219 133.260 148.752  0.00  0.00     0.161 HD
ATOM     28  O           0     132.198 135.637 148.157  0.00  0.00    -0.239 OA
ENDBRANCH  23  24
ENDBRANCH  22  23
ENDBRANCH   6  22
BRANCH  18  29
ATOM     29  O           0     137.635 132.597 145.914  0.00  0.00    -0.360 OA
ATOM     30  H           0     137.760 133.534 146.120  0.00  0.00     0.213 HD
ENDBRANCH  18  29
BRANCH  18  31
ATOM     31  O           0     135.399 132.924 146.549  0.00  0.00    -0.360 OA
ATOM     32  H           0     134.854 132.176 146.831  0.00  0.00     0.213 HD
ENDBRANCH  18  31
BRANCH  17  33
ATOM     33  O           0     134.903 130.474 146.050  0.00  0.00    -0.263 OA
BRANCH  33  34
ATOM     34  S           0     135.507 129.445 146.994  0.00  0.00     0.262 S 
ATOM     35  O           0     136.970 129.612 146.981  0.00  0.00    -0.199 OA
ATOM     36  C           0     134.796 129.716 148.641  0.00  0.00     0.194 C 
ATOM     37  O           0     135.205 128.105 146.467  0.00  0.00    -0.199 OA
ENDBRANCH  33  34
ENDBRANCH  17  33
TORSDOF 7
ENDMDL
MODEL 3
REMARK VINA RESULT:      -7.0      8.461     11.290
REMARK  7 active torsions:
REMARK  status: ('A' for Active; 'I' for Inactive)
REMARK    1  A    between atoms: C_6  and  C_7 
REMARK    2  A    between atoms: C_7  and  O_8 
REMARK    3  A    between atoms: O_8  and  C_9 
REMARK       I    between atoms: C_9  and  N_10 
REMARK    4  A    between atoms: C_22  and  O_23 
REMARK    5  A    between atoms: O_23  and  S_24 
REMARK    6  A    between atoms: C_28  and  O_29 
REMARK    7  A    between atoms: C_28  and  O_30 
ROOT
ATOM      1  N           0     131.248 133.397 137.008  0.00  0.00    -0.235 N 
ATOM      2  H           0     131.207 134.035 137.737  0.00  0.00     0.174 HD
ATOM      3  H           0     131.382 132.455 137.195  0.00  0.00     0.174 HD
ATOM      4  C           0     131.114 133.804 135.776  0.00  0.00     0.672 C 
ATOM      5  N           0     130.915 135.136 135.458  0.00  0.00    -0.218 N 
ATOM      6  C           0     131.385 135.615 134.162  0.00  0.00     0.151 C 
ATOM      7  C           0     130.905 134.753 133.010  0.00  0.00     0.180 C 
ATOM      8  N           0     129.487 135.062 132.730  0.00  0.00    -0.216 N 
ATOM      9  C           0     128.852 133.878 132.446  0.00  0.00     0.670 C 
ATOM     10  N           0     127.717 133.790 131.811  0.00  0.00    -0.235 N 
ATOM     11  H           0     127.267 134.594 131.508  0.00  0.00     0.174 HD
ATOM     12  H           0     127.322 132.919 131.643  0.00  0.00     0.174 HD
ATOM     13  C           0     130.900 133.262 133.311  0.00  0.00     0.220 C 
ATOM     14  N           0     129.561 132.799 132.913  0.00  0.00    -0.191 N 
ATOM     15  N           0     131.170 132.942 134.713  0.00  0.00    -0.180 N 
ATOM     16  C           0     131.565 131.521 134.719  0.00  0.00     0.183 C 
ATOM     17  C           0     132.419 131.356 133.439  0.00  0.00     0.227 C 
ATOM     18  C           0     131.974 132.511 132.506  0.00  0.00     0.238 C 
ATOM     19  H           0     130.474 135.735 136.081  0.00  0.00     0.178 HD
ATOM     20  H           0     129.078 135.942 132.743  0.00  0.00     0.178 HD
ATOM     21  H           0     129.235 131.887 132.967  0.00  0.00     0.180 HD
ENDROOT
BRANCH   6  22
ATOM     22  C           0     132.914 135.626 134.164  0.00  0.00     0.208 C 
BRANCH  22  23
ATOM     23  O           0     133.395 136.011 135.479  0.00  0.00    -0.302 OA
BRANCH  23  24
ATOM     24  C           0     134.330 135.267 136.099  0.00  0.00     0.358 C 
ATOM     25  N           0     134.849 135.678 137.273  0.00  0.00    -0.346 N 
ATOM     26  H           0     134.548 136.510 137.671  0.00  0.00     0.161 HD
ATOM     27  H           0     135.522 135.142 137.721  0.00  0.00     0.161 HD
ATOM     28  O           0     134.705 134.224 135.601  0.00  0.00    -0.239 OA
ENDBRANCH  23  24
ENDBRANCH  22  23
ENDBRANCH   6  22
BRANCH  18  29
ATOM     29  O           0     131.423 131.989 131.296  0.00  0.00    -0.360 OA
ATOM     30  H           0     131.737 132.556 130.578  0.00  0.00     0.213 HD
ENDBRANCH  18  29
BRANCH  18  31
ATOM     31  O           0     133.077 133.374 132.221  0.00  0.00    -0.360 OA
ATOM     32  H           0     133.832 133.037 132.722  0.00  0.00     0.213 HD
ENDBRANCH  18  31
BRANCH  17  33
ATOM     33  O           0     133.809 131.472 133.751  0.00  0.00    -0.263 OA
BRANCH  33  34
ATOM     34  S           0     134.391 130.066 133.699  0.00  0.00     0.262 S 
ATOM     35  O           0     133.324 129.143 133.279  0.00  0.00    -0.199 OA
ATOM     36  C           0     135.786 130.084 132.541  0.00  0.00     0.194 C 
ATOM     37  O           0     134.799 129.688 135.062  0.00  0.00    -0.199 OA
ENDBRANCH  33  34
ENDBRANCH  17  33
TORSDOF 7
ENDMDL
MODEL 4
REMARK VINA RESULT:      -6.8      3.779      6.282
REMARK  7 active torsions:
REMARK  status: ('A' for Active; 'I' for Inactive)
REMARK    1  A    between atoms: C_6  and  C_7 
REMARK    2  A    between atoms: C_7  and  O_8 
REMARK    3  A    between atoms: O_8  and  C_9 
REMARK       I    between atoms: C_9  and  N_10 
REMARK    4  A    between atoms: C_22  and  O_23 
REMARK    5  A    between atoms: O_23  and  S_24 
REMARK    6  A    between atoms: C_28  and  O_29 
REMARK    7  A    between atoms: C_28  and  O_30 
ROOT
ATOM      1  N           0     134.863 133.463 147.829  0.00  0.00    -0.235 N 
ATOM      2  H           0     134.565 133.205 148.716  0.00  0.00     0.174 HD
ATOM      3  H           0     134.562 134.299 147.441  0.00  0.00     0.174 HD
ATOM      4  C           0     135.674 132.689 147.163  0.00  0.00     0.672 C 
ATOM      5  N           0     136.136 131.491 147.675  0.00  0.00    -0.218 N 
ATOM      6  C           0     136.483 130.425 146.739  0.00  0.00     0.151 C 
ATOM      7  C           0     137.423 130.892 145.645  0.00  0.00     0.180 C 
ATOM      8  N           0     138.791 131.001 146.193  0.00  0.00    -0.216 N 
ATOM      9  C           0     139.365 132.127 145.656  0.00  0.00     0.670 C 
ATOM     10  N           0     140.650 132.347 145.618  0.00  0.00    -0.235 N 
ATOM     11  H           0     141.265 131.692 145.984  0.00  0.00     0.174 HD
ATOM     12  H           0     140.990 133.166 145.223  0.00  0.00     0.174 HD
ATOM     13  C           0     137.126 132.291 145.126  0.00  0.00     0.220 C 
ATOM     14  N           0     138.419 132.992 145.165  0.00  0.00    -0.191 N 
ATOM     15  N           0     136.117 133.008 145.907  0.00  0.00    -0.180 N 
ATOM     16  C           0     135.650 134.099 145.030  0.00  0.00     0.183 C 
ATOM     17  C           0     135.606 133.464 143.620  0.00  0.00     0.227 C 
ATOM     18  C           0     136.588 132.267 143.686  0.00  0.00     0.238 C 
ATOM     19  H           0     136.227 131.361 148.633  0.00  0.00     0.178 HD
ATOM     20  H           0     139.209 130.387 146.818  0.00  0.00     0.178 HD
ATOM     21  H           0     138.578 133.908 144.888  0.00  0.00     0.180 HD
ENDROOT
BRANCH   6  22
ATOM     22  C           0     135.200 129.898 146.094  0.00  0.00     0.208 C 
BRANCH  22  23
ATOM     23  O           0     134.971 128.529 146.521  0.00  0.00    -0.302 OA
BRANCH  23  24
ATOM     24  C           0     133.933 128.240 147.330  0.00  0.00     0.358 C 
ATOM     25  N           0     133.461 129.175 148.179  0.00  0.00    -0.346 N 
ATOM     26  H           0     133.868 130.054 148.206  0.00  0.00     0.161 HD
ATOM     27  H           0     132.714 128.967 148.761  0.00  0.00     0.161 HD
ATOM     28  O           0     133.424 127.138 147.294  0.00  0.00    -0.239 OA
ENDBRANCH  23  24
ENDBRANCH  22  23
ENDBRANCH   6  22
BRANCH  18  29
ATOM     29  O           0     137.651 132.443 142.747  0.00  0.00    -0.360 OA
ATOM     30  H           0     137.582 133.347 142.412  0.00  0.00     0.213 HD
ENDBRANCH  18  29
BRANCH  18  31
ATOM     31  O           0     135.897 131.042 143.433  0.00  0.00    -0.360 OA
ATOM     32  H           0     135.013 131.136 143.813  0.00  0.00     0.213 HD
ENDBRANCH  18  31
BRANCH  17  33
ATOM     33  O           0     134.284 133.012 143.320  0.00  0.00    -0.263 OA
BRANCH  33  34
ATOM     34  S           0     133.958 133.501 141.916  0.00  0.00     0.262 S 
ATOM     35  O           0     135.091 133.164 141.039  0.00  0.00    -0.199 OA
ATOM     36  C           0     132.417 132.702 141.392  0.00  0.00     0.194 C 
ATOM     37  O           0     133.843 134.968 141.956  0.00  0.00    -0.199 OA
ENDBRANCH  33  34
ENDBRANCH  17  33
TORSDOF 7
ENDMDL
MODEL 5
REMARK VINA RESULT:      -6.7      4.296      6.891
REMARK  7 active torsions:
REMARK  status: ('A' for Active; 'I' for Inactive)
REMARK    1  A    between atoms: C_6  and  C_7 
REMARK    2  A    between atoms: C_7  and  O_8 
REMARK    3  A    between atoms: O_8  and  C_9 
REMARK       I    between atoms: C_9  and  N_10 
REMARK    4  A    between atoms: C_22  and  O_23 
REMARK    5  A    between atoms: O_23  and  S_24 
REMARK    6  A    between atoms: C_28  and  O_29 
REMARK    7  A    between atoms: C_28  and  O_30 
ROOT
ATOM      1  N           0     134.287 132.043 149.330  0.00  0.00    -0.235 N 
ATOM      2  H           0     133.807 131.720 150.109  0.00  0.00     0.174 HD
ATOM      3  H           0     134.224 132.977 149.075  0.00  0.00     0.174 HD
ATOM      4  C           0     135.023 131.224 148.632  0.00  0.00     0.672 C 
ATOM      5  N           0     135.149 129.886 148.958  0.00  0.00    -0.218 N 
ATOM      6  C           0     135.420 128.935 147.885  0.00  0.00     0.151 C 
ATOM      7  C           0     136.596 129.347 147.021  0.00  0.00     0.180 C 
ATOM      8  N           0     137.854 129.056 147.741  0.00  0.00    -0.216 N 
ATOM      9  C           0     138.719 130.096 147.502  0.00  0.00     0.670 C 
ATOM     10  N           0     140.012 130.024 147.662  0.00  0.00    -0.235 N 
ATOM     11  H           0     140.417 129.198 147.968  0.00  0.00     0.174 HD
ATOM     12  H           0     140.566 130.799 147.474  0.00  0.00     0.174 HD
ATOM     13  C           0     136.671 130.841 146.746  0.00  0.00     0.220 C 
ATOM     14  N           0     138.055 131.218 147.074  0.00  0.00    -0.191 N 
ATOM     15  N           0     135.715 131.632 147.522  0.00  0.00    -0.180 N 
ATOM     16  C           0     135.620 132.926 146.819  0.00  0.00     0.183 C 
ATOM     17  C           0     135.674 132.552 145.319  0.00  0.00     0.227 C 
ATOM     18  C           0     136.374 131.170 145.274  0.00  0.00     0.238 C 
ATOM     19  H           0     135.059 129.588 149.877  0.00  0.00     0.178 HD
ATOM     20  H           0     138.036 128.273 148.284  0.00  0.00     0.178 HD
ATOM     21  H           0     138.436 132.108 146.998  0.00  0.00     0.180 HD
ENDROOT
BRANCH   6  22
ATOM     22  C           0     134.177 128.819 147.002  0.00  0.00     0.208 C 
BRANCH  22  23
ATOM     23  O           0     133.040 128.424 147.814  0.00  0.00    -0.302 OA
BRANCH  23  24
ATOM     24  C           0     132.224 127.438 147.396  0.00  0.00     0.358 C 
ATOM     25  N           0     132.740 126.258 147.000  0.00  0.00    -0.346 N 
ATOM     26  H           0     133.700 126.119 147.017  0.00  0.00     0.161 HD
ATOM     27  H           0     132.153 125.547 146.699  0.00  0.00     0.161 HD
ATOM     28  O           0     131.021 127.613 147.375  0.00  0.00    -0.239 OA
ENDBRANCH  23  24
ENDBRANCH  22  23
ENDBRANCH   6  22
BRANCH  18  29
ATOM     29  O           0     137.586 131.250 144.521  0.00  0.00    -0.360 OA
ATOM     30  H           0     137.529 132.051 143.981  0.00  0.00     0.213 HD
ENDBRANCH  18  29
BRANCH  18  31
ATOM     31  O           0     135.502 130.188 144.711  0.00  0.00    -0.360 OA
ATOM     32  H           0     135.119 130.578 143.913  0.00  0.00     0.213 HD
ENDBRANCH  18  31
BRANCH  17  33
ATOM     33  O           0     134.353 132.462 144.782  0.00  0.00    -0.263 OA
BRANCH  33  34
ATOM     34  S           0     134.102 133.750 144.012  0.00  0.00     0.262 S 
ATOM     35  O           0     133.250 134.620 144.838  0.00  0.00    -0.199 OA
ATOM     36  C           0     135.711 134.503 143.646  0.00  0.00     0.194 C 
ATOM     37  O           0     133.350 133.416 142.791  0.00  0.00    -0.199 OA
ENDBRANCH  33  34
ENDBRANCH  17  33
TORSDOF 7
ENDMDL
MODEL 6
REMARK VINA RESULT:      -6.7      1.664      2.357
REMARK  7 active torsions:
REMARK  status: ('A' for Active; 'I' for Inactive)
REMARK    1  A    between atoms: C_6  and  C_7 
REMARK    2  A    between atoms: C_7  and  O_8 
REMARK    3  A    between atoms: O_8  and  C_9 
REMARK       I    between atoms: C_9  and  N_10 
REMARK    4  A    between atoms: C_22  and  O_23 
REMARK    5  A    between atoms: O_23  and  S_24 
REMARK    6  A    between atoms: C_28  and  O_29 
REMARK    7  A    between atoms: C_28  and  O_30 
ROOT
ATOM      1  N           0     137.764 132.900 142.590  0.00  0.00    -0.235 N 
ATOM      2  H           0     138.087 132.456 141.790  0.00  0.00     0.174 HD
ATOM      3  H           0     138.309 132.910 143.392  0.00  0.00     0.174 HD
ATOM      4  C           0     136.600 133.488 142.584  0.00  0.00     0.672 C 
ATOM      5  N           0     135.789 133.506 141.463  0.00  0.00    -0.218 N 
ATOM      6  C           0     134.345 133.590 141.656  0.00  0.00     0.151 C 
ATOM      7  C           0     133.943 134.725 142.578  0.00  0.00     0.180 C 
ATOM      8  N           0     134.025 136.003 141.838  0.00  0.00    -0.216 N 
ATOM      9  C           0     134.539 136.945 142.695  0.00  0.00     0.670 C 
ATOM     10  N           0     134.419 138.233 142.524  0.00  0.00    -0.235 N 
ATOM     11  H           0     133.944 138.577 141.753  0.00  0.00     0.174 HD
ATOM     12  H           0     134.808 138.845 143.170  0.00  0.00     0.174 HD
ATOM     13  C           0     134.878 134.927 143.759  0.00  0.00     0.220 C 
ATOM     14  N           0     135.192 136.364 143.753  0.00  0.00    -0.191 N 
ATOM     15  N           0     136.099 134.123 143.690  0.00  0.00    -0.180 N 
ATOM     16  C           0     136.630 134.101 145.065  0.00  0.00     0.183 C 
ATOM     17  C           0     135.372 133.992 145.959  0.00  0.00     0.227 C 
ATOM     18  C           0     134.212 134.543 145.091  0.00  0.00     0.238 C 
ATOM     19  H           0     136.171 133.463 140.572  0.00  0.00     0.178 HD
ATOM     20  H           0     133.763 136.150 140.916  0.00  0.00     0.178 HD
ATOM     21  H           0     135.762 136.825 144.389  0.00  0.00     0.180 HD
ENDROOT
BRANCH   6  22
ATOM     22  C           0     133.849 132.272 142.254  0.00  0.00     0.208 C 
BRANCH  22  23
ATOM     23  O           0     134.953 131.333 142.342  0.00  0.00    -0.302 OA
BRANCH  23  24
ATOM     24  C           0     135.299 130.810 143.533  0.00  0.00     0.358 C 
ATOM     25  N           0     134.366 130.642 144.491  0.00  0.00    -0.346 N 
ATOM     26  H           0     133.446 130.898 144.322  0.00  0.00     0.161 HD
ATOM     27  H           0     134.615 130.264 145.350  0.00  0.00     0.161 HD
ATOM     28  O           0     136.452 130.489 143.744  0.00  0.00    -0.239 OA
ENDBRANCH  23  24
ENDBRANCH  22  23
ENDBRANCH   6  22
BRANCH  18  29
ATOM     29  O           0     133.627 135.690 145.711  0.00  0.00    -0.360 OA
ATOM     30  H           0     132.830 135.387 146.166  0.00  0.00     0.213 HD
ENDBRANCH  18  29
BRANCH  18  31
ATOM     31  O           0     133.224 133.532 144.880  0.00  0.00    -0.360 OA
ATOM     32  H           0     132.365 133.940 145.055  0.00  0.00     0.213 HD
ENDBRANCH  18  31
BRANCH  17  33
ATOM     33  O           0     135.129 132.629 146.312  0.00  0.00    -0.263 OA
BRANCH  33  34
ATOM     34  S           0     135.108 132.563 147.832  0.00  0.00     0.262 S 
ATOM     35  O           0     136.221 133.380 148.342  0.00  0.00    -0.199 OA
ATOM     36  C           0     133.494 133.168 148.394  0.00  0.00     0.194 C 
ATOM     37  O           0     135.355 131.169 148.235  0.00  0.00    -0.199 OA
ENDBRANCH  33  34
ENDBRANCH  17  33
TORSDOF 7
ENDMDL
MODEL 7
REMARK VINA RESULT:      -6.6      7.472     10.871
REMARK  7 active torsions:
REMARK  status: ('A' for Active; 'I' for Inactive)
REMARK    1  A    between atoms: C_6  and  C_7 
REMARK    2  A    between atoms: C_7  and  O_8 
REMARK    3  A    between atoms: O_8  and  C_9 
REMARK       I    between atoms: C_9  and  N_10 
REMARK    4  A    between atoms: C_22  and  O_23 
REMARK    5  A    between atoms: O_23  and  S_24 
REMARK    6  A    between atoms: C_28  and  O_29 
REMARK    7  A    between atoms: C_28  and  O_30 
ROOT
ATOM      1  N           0     130.479 132.644 136.273  0.00  0.00    -0.235 N 
ATOM      2  H           0     130.132 132.840 137.157  0.00  0.00     0.174 HD
ATOM      3  H           0     130.345 131.766 135.883  0.00  0.00     0.174 HD
ATOM      4  C           0     131.119 133.564 135.606  0.00  0.00     0.672 C 
ATOM      5  N           0     131.330 134.832 136.116  0.00  0.00    -0.218 N 
ATOM      6  C           0     132.509 135.569 135.672  0.00  0.00     0.151 C 
ATOM      7  C           0     132.635 135.615 134.161  0.00  0.00     0.180 C 
ATOM      8  N           0     131.681 136.608 133.624  0.00  0.00    -0.216 N 
ATOM      9  C           0     131.148 136.089 132.469  0.00  0.00     0.670 C 
ATOM     10  N           0     130.564 136.803 131.547  0.00  0.00    -0.235 N 
ATOM     11  H           0     130.485 137.763 131.655  0.00  0.00     0.174 HD
ATOM     12  H           0     130.208 136.371 130.754  0.00  0.00     0.174 HD
ATOM     13  C           0     132.244 134.320 133.466  0.00  0.00     0.220 C 
ATOM     14  N           0     131.307 134.727 132.407  0.00  0.00    -0.191 N 
ATOM     15  N           0     131.632 133.333 134.356  0.00  0.00    -0.180 N 
ATOM     16  C           0     131.742 132.046 133.645  0.00  0.00     0.183 C 
ATOM     17  C           0     133.130 132.102 132.964  0.00  0.00     0.227 C 
ATOM     18  C           0     133.459 133.612 132.844  0.00  0.00     0.238 C 
ATOM     19  H           0     130.711 135.221 136.753  0.00  0.00     0.178 HD
ATOM     20  H           0     131.470 137.470 134.015  0.00  0.00     0.178 HD
ATOM     21  H           0     130.876 134.135 131.770  0.00  0.00     0.180 HD
ENDROOT
BRANCH   6  22
ATOM     22  C           0     133.757 134.899 136.249  0.00  0.00     0.208 C 
BRANCH  22  23
ATOM     23  O           0     134.121 135.546 137.497  0.00  0.00    -0.302 OA
BRANCH  23  24
ATOM     24  C           0     133.471 135.232 138.633  0.00  0.00     0.358 C 
ATOM     25  N           0     133.505 136.075 139.684  0.00  0.00    -0.346 N 
ATOM     26  H           0     133.998 136.908 139.621  0.00  0.00     0.161 HD
ATOM     27  H           0     133.036 135.850 140.503  0.00  0.00     0.161 HD
ATOM     28  O           0     132.853 134.189 138.711  0.00  0.00    -0.239 OA
ENDBRANCH  23  24
ENDBRANCH  22  23
ENDBRANCH   6  22
BRANCH  18  29
ATOM     29  O           0     133.610 133.981 131.472  0.00  0.00    -0.360 OA
ATOM     30  H           0     133.128 134.810 131.350  0.00  0.00     0.213 HD
ENDBRANCH  18  29
BRANCH  18  31
ATOM     31  O           0     134.645 133.923 133.578  0.00  0.00    -0.360 OA
ATOM     32  H           0     134.778 134.878 133.504  0.00  0.00     0.213 HD
ENDBRANCH  18  31
BRANCH  17  33
ATOM     33  O           0     134.106 131.440 133.771  0.00  0.00    -0.263 OA
BRANCH  33  34
ATOM     34  S           0     134.687 130.315 132.926  0.00  0.00     0.262 S 
ATOM     35  O           0     133.773 130.069 131.798  0.00  0.00    -0.199 OA
ATOM     36  C           0     136.339 130.826 132.378  0.00  0.00     0.194 C 
ATOM     37  O           0     134.722 129.095 133.748  0.00  0.00    -0.199 OA
ENDBRANCH  33  34
ENDBRANCH  17  33
TORSDOF 7
ENDMDL
MODEL 8
REMARK VINA RESULT:      -6.6      2.781      4.457
REMARK  7 active torsions:
REMARK  status: ('A' for Active; 'I' for Inactive)
REMARK    1  A    between atoms: C_6  and  C_7 
REMARK    2  A    between atoms: C_7  and  O_8 
REMARK    3  A    between atoms: O_8  and  C_9 
REMARK       I    between atoms: C_9  and  N_10 
REMARK    4  A    between atoms: C_22  and  O_23 
REMARK    5  A    between atoms: O_23  and  S_24 
REMARK    6  A    between atoms: C_28  and  O_29 
REMARK    7  A    between atoms: C_28  and  O_30 
ROOT
ATOM      1  N           0     134.744 129.753 145.545  0.00  0.00    -0.235 N 
ATOM      2  H           0     134.567 129.138 144.816  0.00  0.00     0.174 HD
ATOM      3  H           0     134.349 129.597 146.417  0.00  0.00     0.174 HD
ATOM      4  C           0     135.519 130.784 145.354  0.00  0.00     0.672 C 
ATOM      5  N           0     136.110 131.045 144.131  0.00  0.00    -0.218 N 
ATOM      6  C           0     136.412 132.432 143.790  0.00  0.00     0.151 C 
ATOM      7  C           0     137.188 133.146 144.879  0.00  0.00     0.180 C 
ATOM      8  N           0     138.602 132.715 144.830  0.00  0.00    -0.216 N 
ATOM      9  C           0     139.039 132.579 146.125  0.00  0.00     0.670 C 
ATOM     10  N           0     140.295 132.571 146.476  0.00  0.00    -0.235 N 
ATOM     11  H           0     140.987 132.664 145.803  0.00  0.00     0.174 HD
ATOM     12  H           0     140.536 132.471 147.411  0.00  0.00     0.174 HD
ATOM     13  C           0     136.748 132.791 146.291  0.00  0.00     0.220 C 
ATOM     14  N           0     137.991 132.454 147.003  0.00  0.00    -0.191 N 
ATOM     15  N           0     135.794 131.683 146.351  0.00  0.00    -0.180 N 
ATOM     16  C           0     135.162 131.784 147.679  0.00  0.00     0.183 C 
ATOM     17  C           0     134.995 133.305 147.909  0.00  0.00     0.227 C 
ATOM     18  C           0     136.050 133.970 146.989  0.00  0.00     0.238 C 
ATOM     19  H           0     136.319 130.324 143.516  0.00  0.00     0.178 HD
ATOM     20  H           0     139.126 132.558 144.029  0.00  0.00     0.178 HD
ATOM     21  H           0     138.060 132.191 147.934  0.00  0.00     0.180 HD
ENDROOT
BRANCH   6  22
ATOM     22  C           0     135.099 133.179 143.552  0.00  0.00     0.208 C 
BRANCH  22  23
ATOM     23  O           0     135.379 134.480 142.973  0.00  0.00    -0.302 OA
BRANCH  23  24
ATOM     24  C           0     134.400 135.400 142.875  0.00  0.00     0.358 C 
ATOM     25  N           0     134.115 136.195 143.926  0.00  0.00    -0.346 N 
ATOM     26  H           0     134.616 136.104 144.751  0.00  0.00     0.161 HD
ATOM     27  H           0     133.410 136.857 143.856  0.00  0.00     0.161 HD
ATOM     28  O           0     133.773 135.512 141.840  0.00  0.00    -0.239 OA
ENDBRANCH  23  24
ENDBRANCH  22  23
ENDBRANCH   6  22
BRANCH  18  29
ATOM     29  O           0     136.984 134.722 147.765  0.00  0.00    -0.360 OA
ATOM     30  H           0     136.471 135.348 148.293  0.00  0.00     0.213 HD
ENDBRANCH  18  29
BRANCH  18  31
ATOM     31  O           0     135.411 134.811 146.025  0.00  0.00    -0.360 OA
ATOM     32  H           0     134.461 134.651 146.101  0.00  0.00     0.213 HD
ENDBRANCH  18  31
BRANCH  17  33
ATOM     33  O           0     133.677 133.721 147.542  0.00  0.00    -0.263 OA
BRANCH  33  34
ATOM     34  S           0     133.219 134.716 148.598  0.00  0.00     0.262 S 
ATOM     35  O           0     132.085 135.477 148.050  0.00  0.00    -0.199 OA
ATOM     36  C           0     132.770 133.782 150.086  0.00  0.00     0.194 C 
ATOM     37  O           0     134.318 135.665 148.842  0.00  0.00    -0.199 OA
ENDBRANCH  33  34
ENDBRANCH  17  33
TORSDOF 7
ENDMDL
MODEL 9
REMARK VINA RESULT:      -6.5      4.092      6.264
REMARK  7 active torsions:
REMARK  status: ('A' for Active; 'I' for Inactive)
REMARK    1  A    between atoms: C_6  and  C_7 
REMARK    2  A    between atoms: C_7  and  O_8 
REMARK    3  A    between atoms: O_8  and  C_9 
REMARK       I    between atoms: C_9  and  N_10 
REMARK    4  A    between atoms: C_22  and  O_23 
REMARK    5  A    between atoms: O_23  and  S_24 
REMARK    6  A    between atoms: C_28  and  O_29 
REMARK    7  A    between atoms: C_28  and  O_30 
ROOT
ATOM      1  N           0     134.643 134.158 146.690  0.00  0.00    -0.235 N 
ATOM      2  H           0     133.986 134.664 146.188  0.00  0.00     0.174 HD
ATOM      3  H           0     135.109 134.572 147.434  0.00  0.00     0.174 HD
ATOM      4  C           0     134.897 132.920 146.370  0.00  0.00     0.672 C 
ATOM      5  N           0     134.255 132.284 145.323  0.00  0.00    -0.218 N 
ATOM      6  C           0     134.962 131.211 144.628  0.00  0.00     0.151 C 
ATOM      7  C           0     135.518 130.167 145.577  0.00  0.00     0.180 C 
ATOM      8  N           0     134.418 129.291 146.034  0.00  0.00    -0.216 N 
ATOM      9  C           0     134.624 129.028 147.366  0.00  0.00     0.670 C 
ATOM     10  N           0     134.085 128.028 148.007  0.00  0.00    -0.235 N 
ATOM     11  H           0     133.497 127.414 147.540  0.00  0.00     0.174 HD
ATOM     12  H           0     134.273 127.899 148.950  0.00  0.00     0.174 HD
ATOM     13  C           0     136.087 130.739 146.865  0.00  0.00     0.220 C 
ATOM     14  N           0     135.467 129.947 147.939  0.00  0.00    -0.191 N 
ATOM     15  N           0     135.821 132.167 147.046  0.00  0.00    -0.180 N 
ATOM     16  C           0     136.792 132.620 148.059  0.00  0.00     0.183 C 
ATOM     17  C           0     138.088 131.846 147.719  0.00  0.00     0.227 C 
ATOM     18  C           0     137.617 130.598 146.930  0.00  0.00     0.238 C 
ATOM     19  H           0     133.359 132.544 145.056  0.00  0.00     0.178 HD
ATOM     20  H           0     133.685 128.961 145.491  0.00  0.00     0.178 HD
ATOM     21  H           0     135.627 130.054 148.890  0.00  0.00     0.180 HD
ENDROOT
BRANCH   6  22
ATOM     22  C           0     136.117 131.816 143.830  0.00  0.00     0.208 C 
BRANCH  22  23
ATOM     23  O           0     135.651 132.993 143.118  0.00  0.00    -0.302 OA
BRANCH  23  24
ATOM     24  C           0     136.437 134.083 143.032  0.00  0.00     0.358 C 
ATOM     25  N           0     137.558 134.049 142.285  0.00  0.00    -0.346 N 
ATOM     26  H           0     137.798 133.238 141.809  0.00  0.00     0.161 HD
ATOM     27  H           0     138.124 134.834 142.222  0.00  0.00     0.161 HD
ATOM     28  O           0     136.134 135.098 143.628  0.00  0.00    -0.239 OA
ENDBRANCH  23  24
ENDBRANCH  22  23
ENDBRANCH   6  22
BRANCH  18  29
ATOM     29  O           0     137.985 129.404 147.622  0.00  0.00    -0.360 OA
ATOM     30  H           0     138.938 129.452 147.777  0.00  0.00     0.213 HD
ENDBRANCH  18  29
BRANCH  18  31
ATOM     31  O           0     138.173 130.603 145.613  0.00  0.00    -0.360 OA
ATOM     32  H           0     139.013 130.126 145.662  0.00  0.00     0.213 HD
ENDBRANCH  18  31
BRANCH  17  33
ATOM     33  O           0     138.951 132.652 146.914  0.00  0.00    -0.263 OA
BRANCH  33  34
ATOM     34  S           0     140.378 132.267 147.274  0.00  0.00     0.262 S 
ATOM     35  O           0     141.124 132.047 146.025  0.00  0.00    -0.199 OA
ATOM     36  C           0     141.081 133.609 148.272  0.00  0.00     0.194 C 
ATOM     37  O           0     140.338 130.989 148.004  0.00  0.00    -0.199 OA
ENDBRANCH  33  34
ENDBRANCH  17  33
TORSDOF 7
ENDMDL
