# created with PyMOL 2.3.4
@<TRIPOS>MOLECULE
ligand_out_0001
37 39 1                 
SMALL
USER_CHARGES
@<TRIPOS>ATOM
1	   N	137.371	132.705	142.443	N.3	1	UNK0	-0.235	
2	   N	135.474	133.572	141.355	N.3	1	UNK0	-0.218	
3	   N	134.035	136.259	141.800	N.3	1	UNK0	-0.216	
4	   N	134.709	138.409	142.521	N.3	1	UNK0	-0.235	
5	   N	135.259	136.436	143.705	N.3	1	UNK0	-0.191	
6	   N	135.882	134.102	143.588	N.3	1	UNK0	-0.180	
7	   N	131.397	133.160	139.474	N.pl3	1	UNK0	-0.346	
8	   C	136.289	133.433	142.464	C.3	1	UNK0	0.672	
9	   C	134.053	133.829	141.569	C.3	1	UNK0	0.151	
10	   C	133.804	134.987	142.516	C.3	1	UNK0	0.180	
11	   C	134.670	137.114	142.667	C.3	1	UNK0	0.670	
12	   C	134.770	135.048	143.689	C.3	1	UNK0	0.220	
13	   C	136.421	133.987	144.956	C.3	1	UNK0	0.183	
14	   C	135.169	134.016	145.864	C.2	1	UNK0	0.227	
15	   C	134.077	134.723	145.022	C.3	1	UNK0	0.238	
16	   C	133.405	132.571	142.149	C.2	1	UNK0	0.208	
17	   C	131.435	132.704	140.742	C.2	1	UNK0	0.358	
18	   C	134.798	130.924	148.242	C.3	1	UNK0	0.194	
19	   O	132.498	131.997	141.171	O.2	1	UNK0	-0.302	
20	   O	130.511	132.931	141.498	O.co2	1	UNK0	-0.239	
21	   O	133.645	135.921	145.671	O.2	1	UNK0	-0.360	
22	   O	132.970	133.846	144.806	O.2	1	UNK0	-0.360	
23	   O	134.765	132.687	146.195	O.2	1	UNK0	-0.263	
24	   O	133.247	133.168	148.024	O.3	1	UNK0	-0.199	
25	   O	135.577	133.546	148.312	O.3	1	UNK0	-0.199	
26	   S	134.585	132.643	147.705	S.3	1	UNK0	0.262	
27	   H	137.628	132.241	141.631	 H	1	UNK0	0.174	
28	   H	137.922	132.633	143.238	 H	1	UNK0	0.174	
29	   H	134.270	138.825	141.762	 H	1	UNK0	0.174	
30	   H	135.177	138.956	143.172	 H	1	UNK0	0.174	
31	   H	135.837	133.501	140.458	 H	1	UNK0	0.178	
32	   H	133.783	136.455	140.883	 H	1	UNK0	0.178	
33	   H	135.889	136.810	144.342	 H	1	UNK0	0.180	
34	   H	132.135	132.979	138.871	 H	1	UNK0	0.161	
35	   H	130.631	133.670	139.165	 H	1	UNK0	0.161	
36	   H	134.442	136.417	145.903	 H	1	UNK0	0.213	
37	   H	133.301	132.944	144.920	 H	1	UNK0	0.213	
@<TRIPOS>BOND
1 1 8 1
2 1 27 1
3 1 28 1
4 2 9 1
5 2 31 1
6 3 11 1
7 3 32 1
8 4 29 1
9 4 30 1
10 5 33 1
11 6 13 1
12 7 34 1
13 7 35 1
14 2 8 1
15 6 8 1
16 9 10 1
17 9 16 1
18 3 10 1
19 10 12 1
20 4 11 1
21 5 11 1
22 5 12 1
23 6 12 1
24 12 15 1
25 13 14 1
26 14 15 1
27 14 23 2
28 15 21 2
29 15 22 2
30 16 19 2
31 7 17 1
32 17 20 2
33 17 19 2
34 21 36 1
35 22 37 1
36 23 26 1
37 18 26 1
38 24 26 1
39 25 26 1
@<TRIPOS>SUBSTRUCTURE
1	UNK0	1	GROUP	1 ****	UNK
