MODEL 1
REMARK VINA RESULT:      -7.7      0.000      0.000
REMARK  5 active torsions:
REMARK  status: ('A' for Active; 'I' for Inactive)
REMARK    1  A    between atoms: C_6  and  C_7 
REMARK    2  A    between atoms: C_7  and  O_8 
REMARK    3  A    between atoms: O_8  and  C_9 
REMARK       I    between atoms: C_9  and  N_10 
REMARK    4  A    between atoms: C_25  and  O_26 
REMARK    5  A    between atoms: C_25  and  O_27 
ROOT
ATOM      1  N           0     134.961 132.175 146.670  0.00  0.00    -0.235 N 
ATOM      2  H           0     135.230 132.296 147.594  0.00  0.00     0.174 HD
ATOM      3  H           0     134.305 131.498 146.440  0.00  0.00     0.174 HD
ATOM      4  C           0     135.476 132.927 145.737  0.00  0.00     0.672 C 
ATOM      5  N           0     136.409 133.910 146.016  0.00  0.00    -0.218 N 
ATOM      6  C           0     137.372 134.263 144.977  0.00  0.00     0.151 C 
ATOM      7  C           0     136.713 134.567 143.646  0.00  0.00     0.180 C 
ATOM      8  N           0     136.115 135.919 143.698  0.00  0.00    -0.216 N 
ATOM      9  C           0     134.910 135.865 143.041  0.00  0.00     0.670 C 
ATOM     10  N           0     134.283 136.909 142.575  0.00  0.00    -0.235 N 
ATOM     11  H           0     134.666 137.792 142.684  0.00  0.00     0.174 HD
ATOM     12  H           0     133.433 136.800 142.120  0.00  0.00     0.174 HD
ATOM     13  C           0     135.538 133.661 143.313  0.00  0.00     0.217 C 
ATOM     14  N           0     134.449 134.576 142.936  0.00  0.00    -0.191 N 
ATOM     15  N           0     135.132 132.791 144.418  0.00  0.00    -0.183 N 
ATOM     16  C           0     134.332 131.720 143.796  0.00  0.00     0.150 C 
ATOM     17  C           0     135.059 131.424 142.462  0.00  0.00     0.093 C 
ATOM     18  C           0     135.855 132.715 142.144  0.00  0.00     0.209 C 
ATOM     19  H           0     136.423 134.354 146.879  0.00  0.00     0.178 HD
ATOM     20  H           0     136.503 136.701 144.120  0.00  0.00     0.178 HD
ATOM     21  H           0     133.557 134.314 142.657  0.00  0.00     0.180 HD
ENDROOT
BRANCH   6  22
ATOM     22  C           0     138.345 133.096 144.789  0.00  0.00     0.208 C 
BRANCH  22  23
ATOM     23  O           0     138.986 132.792 146.055  0.00  0.00    -0.302 OA
BRANCH  23  24
ATOM     24  C           0     140.053 131.970 146.089  0.00  0.00     0.362 C 
ATOM     25  N           0     139.965 130.777 146.710  0.00  0.00    -0.337 N 
ATOM     26  C           0     141.125 129.883 146.747  0.00  0.00     0.154 C 
ATOM     27  C           0     138.710 130.374 147.350  0.00  0.00     0.154 C 
ATOM     28  O           0     141.093 132.304 145.559  0.00  0.00    -0.238 OA
ENDBRANCH  23  24
ENDBRANCH  22  23
ENDBRANCH   6  22
BRANCH  18  29
ATOM     29  O           0     135.416 133.279 140.906  0.00  0.00    -0.362 OA
ATOM     30  H           0     134.931 132.585 140.439  0.00  0.00     0.213 HD
ENDBRANCH  18  29
BRANCH  18  31
ATOM     31  O           0     137.256 132.436 142.096  0.00  0.00    -0.362 OA
ATOM     32  H           0     137.460 132.185 141.185  0.00  0.00     0.213 HD
ENDBRANCH  18  31
TORSDOF 5
ENDMDL
MODEL 2
REMARK VINA RESULT:      -7.0      2.534      5.623
REMARK  5 active torsions:
REMARK  status: ('A' for Active; 'I' for Inactive)
REMARK    1  A    between atoms: C_6  and  C_7 
REMARK    2  A    between atoms: C_7  and  O_8 
REMARK    3  A    between atoms: O_8  and  C_9 
REMARK       I    between atoms: C_9  and  N_10 
REMARK    4  A    between atoms: C_25  and  O_26 
REMARK    5  A    between atoms: C_25  and  O_27 
ROOT
ATOM      1  N           0     139.607 130.594 145.935  0.00  0.00    -0.235 N 
ATOM      2  H           0     140.360 130.755 145.346  0.00  0.00     0.174 HD
ATOM      3  H           0     139.632 129.856 146.565  0.00  0.00     0.174 HD
ATOM      4  C           0     138.562 131.372 145.885  0.00  0.00     0.672 C 
ATOM      5  N           0     138.481 132.441 145.009  0.00  0.00    -0.218 N 
ATOM      6  C           0     137.160 132.860 144.551  0.00  0.00     0.151 C 
ATOM      7  C           0     136.187 133.080 145.693  0.00  0.00     0.180 C 
ATOM      8  N           0     136.488 134.373 146.345  0.00  0.00    -0.216 N 
ATOM      9  C           0     136.339 134.198 147.700  0.00  0.00     0.670 C 
ATOM     10  N           0     136.167 135.172 148.549  0.00  0.00    -0.235 N 
ATOM     11  H           0     136.137 136.089 148.235  0.00  0.00     0.174 HD
ATOM     12  H           0     136.068 134.979 149.495  0.00  0.00     0.174 HD
ATOM     13  C           0     136.311 132.066 146.819  0.00  0.00     0.217 C 
ATOM     14  N           0     136.394 132.871 148.048  0.00  0.00    -0.191 N 
ATOM     15  N           0     137.471 131.182 146.693  0.00  0.00    -0.183 N 
ATOM     16  C           0     137.183 130.032 147.569  0.00  0.00     0.150 C 
ATOM     17  C           0     135.667 129.780 147.382  0.00  0.00     0.093 C 
ATOM     18  C           0     135.092 131.131 146.888  0.00  0.00     0.209 C 
ATOM     19  H           0     139.281 132.899 144.708  0.00  0.00     0.178 HD
ATOM     20  H           0     136.743 135.194 145.898  0.00  0.00     0.178 HD
ATOM     21  H           0     136.472 132.525 148.951  0.00  0.00     0.180 HD
ENDROOT
BRANCH   6  22
ATOM     22  C           0     136.594 131.784 143.623  0.00  0.00     0.208 C 
BRANCH  22  23
ATOM     23  O           0     135.836 132.413 142.557  0.00  0.00    -0.302 OA
BRANCH  23  24
ATOM     24  C           0     134.558 132.052 142.336  0.00  0.00     0.362 C 
ATOM     25  N           0     133.699 132.925 141.772  0.00  0.00    -0.337 N 
ATOM     26  C           0     132.308 132.533 141.531  0.00  0.00     0.154 C 
ATOM     27  C           0     134.155 134.267 141.402  0.00  0.00     0.154 C 
ATOM     28  O           0     134.179 130.940 142.643  0.00  0.00    -0.238 OA
ENDBRANCH  23  24
ENDBRANCH  22  23
ENDBRANCH   6  22
BRANCH  18  29
ATOM     29  O           0     134.126 131.631 147.816  0.00  0.00    -0.362 OA
ATOM     30  H           0     133.641 132.333 147.361  0.00  0.00     0.213 HD
ENDBRANCH  18  29
BRANCH  18  31
ATOM     31  O           0     134.508 130.979 145.592  0.00  0.00    -0.362 OA
ATOM     32  H           0     134.601 130.048 145.351  0.00  0.00     0.213 HD
ENDBRANCH  18  31
TORSDOF 5
ENDMDL
MODEL 3
REMARK VINA RESULT:      -6.8      2.147      5.997
REMARK  5 active torsions:
REMARK  status: ('A' for Active; 'I' for Inactive)
REMARK    1  A    between atoms: C_6  and  C_7 
REMARK    2  A    between atoms: C_7  and  O_8 
REMARK    3  A    between atoms: O_8  and  C_9 
REMARK       I    between atoms: C_9  and  N_10 
REMARK    4  A    between atoms: C_25  and  O_26 
REMARK    5  A    between atoms: C_25  and  O_27 
ROOT
ATOM      1  N           0     136.333 134.660 147.775  0.00  0.00    -0.235 N 
ATOM      2  H           0     135.869 135.431 147.411  0.00  0.00     0.174 HD
ATOM      3  H           0     136.888 134.757 148.566  0.00  0.00     0.174 HD
ATOM      4  C           0     136.208 133.494 147.205  0.00  0.00     0.672 C 
ATOM      5  N           0     135.425 133.305 146.080  0.00  0.00    -0.218 N 
ATOM      6  C           0     135.788 132.233 145.158  0.00  0.00     0.151 C 
ATOM      7  C           0     135.985 130.902 145.856  0.00  0.00     0.180 C 
ATOM      8  N           0     134.663 130.321 146.176  0.00  0.00    -0.216 N 
ATOM      9  C           0     134.754 129.746 147.420  0.00  0.00     0.670 C 
ATOM     10  N           0     133.926 128.845 147.872  0.00  0.00    -0.235 N 
ATOM     11  H           0     133.190 128.542 147.319  0.00  0.00     0.174 HD
ATOM     12  H           0     134.048 128.478 148.762  0.00  0.00     0.174 HD
ATOM     13  C           0     136.675 131.004 147.207  0.00  0.00     0.217 C 
ATOM     14  N           0     135.824 130.235 148.128  0.00  0.00    -0.191 N 
ATOM     15  N           0     136.849 132.379 147.678  0.00  0.00    -0.183 N 
ATOM     16  C           0     137.891 132.306 148.718  0.00  0.00     0.150 C 
ATOM     17  C           0     138.900 131.265 148.176  0.00  0.00     0.093 C 
ATOM     18  C           0     138.090 130.402 147.176  0.00  0.00     0.209 C 
ATOM     19  H           0     134.654 133.869 145.910  0.00  0.00     0.178 HD
ATOM     20  H           0     133.875 130.343 145.611  0.00  0.00     0.178 HD
ATOM     21  H           0     135.990 130.095 149.073  0.00  0.00     0.180 HD
ENDROOT
BRANCH   6  22
ATOM     22  C           0     137.088 132.613 144.447  0.00  0.00     0.208 C 
BRANCH  22  23
ATOM     23  O           0     136.809 133.607 143.427  0.00  0.00    -0.302 OA
BRANCH  23  24
ATOM     24  C           0     135.803 133.411 142.553  0.00  0.00     0.362 C 
ATOM     25  N           0     134.802 134.310 142.466  0.00  0.00    -0.337 N 
ATOM     26  C           0     133.707 134.097 141.516  0.00  0.00     0.154 C 
ATOM     27  C           0     134.807 135.498 143.322  0.00  0.00     0.154 C 
ATOM     28  O           0     135.798 132.426 141.843  0.00  0.00    -0.238 OA
ENDBRANCH  23  24
ENDBRANCH  22  23
ENDBRANCH   6  22
BRANCH  18  29
ATOM     29  O           0     138.065 129.037 147.601  0.00  0.00    -0.362 OA
ATOM     30  H           0     137.398 128.975 148.299  0.00  0.00     0.213 HD
ENDBRANCH  18  29
BRANCH  18  31
ATOM     31  O           0     138.646 130.506 145.864  0.00  0.00    -0.362 OA
ATOM     32  H           0     138.114 131.155 145.385  0.00  0.00     0.213 HD
ENDBRANCH  18  31
TORSDOF 5
ENDMDL
MODEL 4
REMARK VINA RESULT:      -6.8     10.050     12.866
REMARK  5 active torsions:
REMARK  status: ('A' for Active; 'I' for Inactive)
REMARK    1  A    between atoms: C_6  and  C_7 
REMARK    2  A    between atoms: C_7  and  O_8 
REMARK    3  A    between atoms: O_8  and  C_9 
REMARK       I    between atoms: C_9  and  N_10 
REMARK    4  A    between atoms: C_25  and  O_26 
REMARK    5  A    between atoms: C_25  and  O_27 
ROOT
ATOM      1  N           0     128.874 134.017 132.086  0.00  0.00    -0.235 N 
ATOM      2  H           0     128.192 133.564 131.565  0.00  0.00     0.174 HD
ATOM      3  H           0     128.985 134.978 132.009  0.00  0.00     0.174 HD
ATOM      4  C           0     129.639 133.336 132.893  0.00  0.00     0.672 C 
ATOM      5  N           0     129.515 131.965 133.042  0.00  0.00    -0.218 N 
ATOM      6  C           0     130.701 131.201 133.416  0.00  0.00     0.151 C 
ATOM      7  C           0     131.405 131.771 134.633  0.00  0.00     0.180 C 
ATOM      8  N           0     130.651 131.398 135.849  0.00  0.00    -0.216 N 
ATOM      9  C           0     130.663 132.482 136.693  0.00  0.00     0.670 C 
ATOM     10  N           0     130.424 132.415 137.973  0.00  0.00    -0.235 N 
ATOM     11  H           0     130.223 131.561 138.385  0.00  0.00     0.174 HD
ATOM     12  H           0     130.449 133.221 138.513  0.00  0.00     0.174 HD
ATOM     13  C           0     131.438 133.291 134.676  0.00  0.00     0.217 C 
ATOM     14  N           0     130.957 133.643 136.022  0.00  0.00    -0.191 N 
ATOM     15  N           0     130.619 133.929 133.644  0.00  0.00    -0.183 N 
ATOM     16  C           0     131.116 135.313 133.553  0.00  0.00     0.150 C 
ATOM     17  C           0     132.650 135.182 133.720  0.00  0.00     0.093 C 
ATOM     18  C           0     132.859 133.841 134.468  0.00  0.00     0.209 C 
ATOM     19  H           0     128.662 131.524 132.901  0.00  0.00     0.178 HD
ATOM     20  H           0     130.225 130.544 136.020  0.00  0.00     0.178 HD
ATOM     21  H           0     130.867 134.541 136.376  0.00  0.00     0.180 HD
ENDROOT
BRANCH   6  22
ATOM     22  C           0     131.679 131.198 132.240  0.00  0.00     0.208 C 
BRANCH  22  23
ATOM     23  O           0     131.705 129.878 131.636  0.00  0.00    -0.302 OA
BRANCH  23  24
ATOM     24  C           0     131.932 128.793 132.400  0.00  0.00     0.362 C 
ATOM     25  N           0     131.076 127.752 132.365  0.00  0.00    -0.337 N 
ATOM     26  C           0     131.323 126.571 133.195  0.00  0.00     0.154 C 
ATOM     27  C           0     129.897 127.802 131.496  0.00  0.00     0.154 C 
ATOM     28  O           0     132.909 128.750 133.120  0.00  0.00    -0.238 OA
ENDBRANCH  23  24
ENDBRANCH  22  23
ENDBRANCH   6  22
BRANCH  18  29
ATOM     29  O           0     133.501 134.065 135.725  0.00  0.00    -0.362 OA
ATOM     30  H           0     134.401 133.720 135.644  0.00  0.00     0.213 HD
ENDBRANCH  18  29
BRANCH  18  31
ATOM     31  O           0     133.628 132.940 133.668  0.00  0.00    -0.362 OA
ATOM     32  H           0     134.549 133.041 133.940  0.00  0.00     0.213 HD
ENDBRANCH  18  31
TORSDOF 5
ENDMDL
MODEL 5
REMARK VINA RESULT:      -6.7      2.895      4.489
REMARK  5 active torsions:
REMARK  status: ('A' for Active; 'I' for Inactive)
REMARK    1  A    between atoms: C_6  and  C_7 
REMARK    2  A    between atoms: C_7  and  O_8 
REMARK    3  A    between atoms: O_8  and  C_9 
REMARK       I    between atoms: C_9  and  N_10 
REMARK    4  A    between atoms: C_25  and  O_26 
REMARK    5  A    between atoms: C_25  and  O_27 
ROOT
ATOM      1  N           0     138.828 130.781 145.477  0.00  0.00    -0.235 N 
ATOM      2  H           0     138.983 130.052 146.098  0.00  0.00     0.174 HD
ATOM      3  H           0     139.569 131.156 144.974  0.00  0.00     0.174 HD
ATOM      4  C           0     137.624 131.254 145.314  0.00  0.00     0.672 C 
ATOM      5  N           0     136.535 130.749 146.003  0.00  0.00    -0.218 N 
ATOM      6  C           0     135.413 131.642 146.273  0.00  0.00     0.151 C 
ATOM      7  C           0     134.924 132.361 145.030  0.00  0.00     0.180 C 
ATOM      8  N           0     134.120 131.426 144.213  0.00  0.00    -0.216 N 
ATOM      9  C           0     134.430 131.656 142.895  0.00  0.00     0.670 C 
ATOM     10  N           0     133.679 131.293 141.893  0.00  0.00    -0.235 N 
ATOM     11  H           0     132.843 130.829 142.057  0.00  0.00     0.174 HD
ATOM     12  H           0     133.957 131.487 140.984  0.00  0.00     0.174 HD
ATOM     13  C           0     136.036 132.802 144.091  0.00  0.00     0.217 C 
ATOM     14  N           0     135.627 132.316 142.763  0.00  0.00    -0.191 N 
ATOM     15  N           0     137.356 132.286 144.454  0.00  0.00    -0.183 N 
ATOM     16  C           0     138.320 133.148 143.746  0.00  0.00     0.150 C 
ATOM     17  C           0     137.704 134.566 143.836  0.00  0.00     0.093 C 
ATOM     18  C           0     136.189 134.332 144.062  0.00  0.00     0.209 C 
ATOM     19  H           0     136.518 129.824 146.298  0.00  0.00     0.178 HD
ATOM     20  H           0     133.490 130.770 144.548  0.00  0.00     0.178 HD
ATOM     21  H           0     136.117 132.441 141.936  0.00  0.00     0.180 HD
ENDROOT
BRANCH   6  22
ATOM     22  C           0     135.849 132.685 147.304  0.00  0.00     0.208 C 
BRANCH  22  23
ATOM     23  O           0     135.844 132.088 148.627  0.00  0.00    -0.302 OA
BRANCH  23  24
ATOM     24  C           0     134.740 131.463 149.079  0.00  0.00     0.362 C 
ATOM     25  N           0     134.810 130.176 149.475  0.00  0.00    -0.337 N 
ATOM     26  C           0     133.610 129.494 149.967  0.00  0.00     0.154 C 
ATOM     27  C           0     136.085 129.458 149.413  0.00  0.00     0.154 C 
ATOM     28  O           0     133.683 132.057 149.131  0.00  0.00    -0.238 OA
ENDBRANCH  23  24
ENDBRANCH  22  23
ENDBRANCH   6  22
BRANCH  18  29
ATOM     29  O           0     135.432 134.894 142.987  0.00  0.00    -0.362 OA
ATOM     30  H           0     134.584 134.430 142.972  0.00  0.00     0.213 HD
ENDBRANCH  18  29
BRANCH  18  31
ATOM     31  O           0     135.779 134.897 145.309  0.00  0.00    -0.362 OA
ATOM     32  H           0     135.558 135.822 145.139  0.00  0.00     0.213 HD
ENDBRANCH  18  31
TORSDOF 5
ENDMDL
MODEL 6
REMARK VINA RESULT:      -6.6      2.374      6.314
REMARK  5 active torsions:
REMARK  status: ('A' for Active; 'I' for Inactive)
REMARK    1  A    between atoms: C_6  and  C_7 
REMARK    2  A    between atoms: C_7  and  O_8 
REMARK    3  A    between atoms: O_8  and  C_9 
REMARK       I    between atoms: C_9  and  N_10 
REMARK    4  A    between atoms: C_25  and  O_26 
REMARK    5  A    between atoms: C_25  and  O_27 
ROOT
ATOM      1  N           0     134.134 129.279 147.865  0.00  0.00    -0.235 N 
ATOM      2  H           0     133.589 128.646 147.372  0.00  0.00     0.174 HD
ATOM      3  H           0     133.997 129.399 148.819  0.00  0.00     0.174 HD
ATOM      4  C           0     135.056 129.965 147.249  0.00  0.00     0.672 C 
ATOM      5  N           0     135.293 129.826 145.892  0.00  0.00    -0.218 N 
ATOM      6  C           0     135.830 130.971 145.163  0.00  0.00     0.151 C 
ATOM      7  C           0     137.059 131.562 145.824  0.00  0.00     0.180 C 
ATOM      8  N           0     138.227 130.700 145.539  0.00  0.00    -0.216 N 
ATOM      9  C           0     138.985 130.638 146.682  0.00  0.00     0.670 C 
ATOM     10  N           0     140.240 130.284 146.709  0.00  0.00    -0.235 N 
ATOM     11  H           0     140.694 130.044 145.887  0.00  0.00     0.174 HD
ATOM     12  H           0     140.719 130.262 147.553  0.00  0.00     0.174 HD
ATOM     13  C           0     136.993 131.595 147.343  0.00  0.00     0.217 C 
ATOM     14  N           0     138.260 130.995 147.792  0.00  0.00    -0.191 N 
ATOM     15  N           0     135.847 130.875 147.900  0.00  0.00    -0.183 N 
ATOM     16  C           0     135.699 131.382 149.276  0.00  0.00     0.150 C 
ATOM     17  C           0     136.014 132.893 149.164  0.00  0.00     0.093 C 
ATOM     18  C           0     136.874 133.030 147.882  0.00  0.00     0.209 C 
ATOM     19  H           0     135.109 128.988 145.438  0.00  0.00     0.178 HD
ATOM     20  H           0     138.420 130.259 144.698  0.00  0.00     0.178 HD
ATOM     21  H           0     138.537 130.875 148.713  0.00  0.00     0.180 HD
ENDROOT
BRANCH   6  22
ATOM     22  C           0     134.750 132.051 145.077  0.00  0.00     0.208 C 
BRANCH  22  23
ATOM     23  O           0     135.122 133.029 144.071  0.00  0.00    -0.302 OA
BRANCH  23  24
ATOM     24  C           0     134.511 133.026 142.871  0.00  0.00     0.362 C 
ATOM     25  N           0     134.191 134.192 142.275  0.00  0.00    -0.337 N 
ATOM     26  C           0     133.526 134.190 140.970  0.00  0.00     0.154 C 
ATOM     27  C           0     134.507 135.462 142.932  0.00  0.00     0.154 C 
ATOM     28  O           0     134.248 131.973 142.325  0.00  0.00    -0.238 OA
ENDBRANCH  23  24
ENDBRANCH  22  23
ENDBRANCH   6  22
BRANCH  18  29
ATOM     29  O           0     138.165 133.556 148.202  0.00  0.00    -0.362 OA
ATOM     30  H           0     138.812 132.891 147.928  0.00  0.00     0.213 HD
ENDBRANCH  18  29
BRANCH  18  31
ATOM     31  O           0     136.216 133.867 146.928  0.00  0.00    -0.362 OA
ATOM     32  H           0     135.741 133.282 146.324  0.00  0.00     0.213 HD
ENDBRANCH  18  31
TORSDOF 5
ENDMDL
MODEL 7
REMARK VINA RESULT:      -6.5      9.581     12.943
REMARK  5 active torsions:
REMARK  status: ('A' for Active; 'I' for Inactive)
REMARK    1  A    between atoms: C_6  and  C_7 
REMARK    2  A    between atoms: C_7  and  O_8 
REMARK    3  A    between atoms: O_8  and  C_9 
REMARK       I    between atoms: C_9  and  N_10 
REMARK    4  A    between atoms: C_25  and  O_26 
REMARK    5  A    between atoms: C_25  and  O_27 
ROOT
ATOM      1  N           0     131.666 137.450 132.062  0.00  0.00    -0.235 N 
ATOM      2  H           0     130.840 137.892 131.810  0.00  0.00     0.174 HD
ATOM      3  H           0     132.508 137.736 131.673  0.00  0.00     0.174 HD
ATOM      4  C           0     131.646 136.475 132.928  0.00  0.00     0.672 C 
ATOM      5  N           0     130.472 136.035 133.514  0.00  0.00    -0.218 N 
ATOM      6  C           0     130.393 134.642 133.941  0.00  0.00     0.151 C 
ATOM      7  C           0     131.566 134.227 134.808  0.00  0.00     0.180 C 
ATOM      8  N           0     131.377 134.766 136.172  0.00  0.00    -0.216 N 
ATOM      9  C           0     132.602 135.191 136.623  0.00  0.00     0.670 C 
ATOM     10  N           0     132.894 135.382 137.879  0.00  0.00    -0.235 N 
ATOM     11  H           0     132.225 135.222 138.562  0.00  0.00     0.174 HD
ATOM     12  H           0     133.782 135.684 138.130  0.00  0.00     0.174 HD
ATOM     13  C           0     132.900 134.809 134.367  0.00  0.00     0.217 C 
ATOM     14  N           0     133.482 135.390 135.587  0.00  0.00    -0.191 N 
ATOM     15  N           0     132.785 135.816 133.311  0.00  0.00    -0.183 N 
ATOM     16  C           0     134.132 135.919 132.723  0.00  0.00     0.150 C 
ATOM     17  C           0     134.656 134.463 132.708  0.00  0.00     0.093 C 
ATOM     18  C           0     133.839 133.731 133.802  0.00  0.00     0.209 C 
ATOM     19  H           0     129.722 136.638 133.639  0.00  0.00     0.178 HD
ATOM     20  H           0     130.540 134.811 136.659  0.00  0.00     0.178 HD
ATOM     21  H           0     134.342 135.835 135.651  0.00  0.00     0.180 HD
ENDROOT
BRANCH   6  22
ATOM     22  C           0     130.356 133.747 132.701  0.00  0.00     0.208 C 
BRANCH  22  23
ATOM     23  O           0     130.275 132.356 133.111  0.00  0.00    -0.302 OA
BRANCH  23  24
ATOM     24  C           0     129.522 131.490 132.406  0.00  0.00     0.362 C 
ATOM     25  N           0     129.897 130.199 132.305  0.00  0.00    -0.337 N 
ATOM     26  C           0     129.078 129.256 131.539  0.00  0.00     0.154 C 
ATOM     27  C           0     131.123 129.738 132.961  0.00  0.00     0.154 C 
ATOM     28  O           0     128.506 131.871 131.862  0.00  0.00    -0.238 OA
ENDBRANCH  23  24
ENDBRANCH  22  23
ENDBRANCH   6  22
BRANCH  18  29
ATOM     29  O           0     134.706 133.233 134.823  0.00  0.00    -0.362 OA
ATOM     30  H           0     134.657 132.268 134.784  0.00  0.00     0.213 HD
ENDBRANCH  18  29
BRANCH  18  31
ATOM     31  O           0     133.081 132.664 133.226  0.00  0.00    -0.362 OA
ATOM     32  H           0     132.624 133.029 132.457  0.00  0.00     0.213 HD
ENDBRANCH  18  31
TORSDOF 5
ENDMDL
MODEL 8
REMARK VINA RESULT:      -6.5     10.601     12.666
REMARK  5 active torsions:
REMARK  status: ('A' for Active; 'I' for Inactive)
REMARK    1  A    between atoms: C_6  and  C_7 
REMARK    2  A    between atoms: C_7  and  O_8 
REMARK    3  A    between atoms: O_8  and  C_9 
REMARK       I    between atoms: C_9  and  N_10 
REMARK    4  A    between atoms: C_25  and  O_26 
REMARK    5  A    between atoms: C_25  and  O_27 
ROOT
ATOM      1  N           0     130.741 133.400 131.004  0.00  0.00    -0.235 N 
ATOM      2  H           0     129.905 132.984 130.741  0.00  0.00     0.174 HD
ATOM      3  H           0     131.310 133.812 130.335  0.00  0.00     0.174 HD
ATOM      4  C           0     131.098 133.410 132.258  0.00  0.00     0.672 C 
ATOM      5  N           0     130.318 132.842 133.251  0.00  0.00    -0.218 N 
ATOM      6  C           0     130.984 132.331 134.444  0.00  0.00     0.151 C 
ATOM      7  C           0     131.923 133.343 135.070  0.00  0.00     0.180 C 
ATOM      8  N           0     131.131 134.346 135.814  0.00  0.00    -0.216 N 
ATOM      9  C           0     131.710 135.573 135.599  0.00  0.00     0.670 C 
ATOM     10  N           0     131.520 136.615 136.360  0.00  0.00    -0.235 N 
ATOM     11  H           0     130.938 136.551 137.132  0.00  0.00     0.174 HD
ATOM     12  H           0     131.961 137.454 136.152  0.00  0.00     0.174 HD
ATOM     13  C           0     132.706 134.170 134.062  0.00  0.00     0.217 C 
ATOM     14  N           0     132.515 135.566 134.487  0.00  0.00    -0.191 N 
ATOM     15  N           0     132.272 133.980 132.678  0.00  0.00    -0.183 N 
ATOM     16  C           0     133.385 134.475 131.848  0.00  0.00     0.150 C 
ATOM     17  C           0     134.657 134.019 132.603  0.00  0.00     0.093 C 
ATOM     18  C           0     134.204 133.821 134.072  0.00  0.00     0.209 C 
ATOM     19  H           0     129.354 132.786 133.155  0.00  0.00     0.178 HD
ATOM     20  H           0     130.345 134.170 136.353  0.00  0.00     0.178 HD
ATOM     21  H           0     132.894 136.349 134.057  0.00  0.00     0.180 HD
ENDROOT
BRANCH   6  22
ATOM     22  C           0     131.786 131.083 134.067  0.00  0.00     0.208 C 
BRANCH  22  23
ATOM     23  O           0     130.952 130.191 133.282  0.00  0.00    -0.302 OA
BRANCH  23  24
ATOM     24  C           0     131.324 128.910 133.098  0.00  0.00     0.362 C 
ATOM     25  N           0     130.413 127.990 132.723  0.00  0.00    -0.337 N 
ATOM     26  C           0     130.817 126.597 132.523  0.00  0.00     0.154 C 
ATOM     27  C           0     129.017 128.384 132.516  0.00  0.00     0.154 C 
ATOM     28  O           0     132.481 128.583 133.270  0.00  0.00    -0.238 OA
ENDBRANCH  23  24
ENDBRANCH  22  23
ENDBRANCH   6  22
BRANCH  18  29
ATOM     29  O           0     134.920 134.703 134.938  0.00  0.00    -0.362 OA
ATOM     30  H           0     135.744 134.931 134.485  0.00  0.00     0.213 HD
ENDBRANCH  18  29
BRANCH  18  31
ATOM     31  O           0     134.395 132.463 134.472  0.00  0.00    -0.362 OA
ATOM     32  H           0     133.736 131.936 134.000  0.00  0.00     0.213 HD
ENDBRANCH  18  31
TORSDOF 5
ENDMDL
MODEL 9
REMARK VINA RESULT:      -6.5     10.963     13.520
REMARK  5 active torsions:
REMARK  status: ('A' for Active; 'I' for Inactive)
REMARK    1  A    between atoms: C_6  and  C_7 
REMARK    2  A    between atoms: C_7  and  O_8 
REMARK    3  A    between atoms: O_8  and  C_9 
REMARK       I    between atoms: C_9  and  N_10 
REMARK    4  A    between atoms: C_25  and  O_26 
REMARK    5  A    between atoms: C_25  and  O_27 
ROOT
ATOM      1  N           0     128.097 132.605 131.175  0.00  0.00    -0.235 N 
ATOM      2  H           0     127.256 132.132 131.075  0.00  0.00     0.174 HD
ATOM      3  H           0     128.279 133.391 130.635  0.00  0.00     0.174 HD
ATOM      4  C           0     128.979 132.190 132.040  0.00  0.00     0.672 C 
ATOM      5  N           0     128.764 131.079 132.837  0.00  0.00    -0.218 N 
ATOM      6  C           0     129.923 130.314 133.285  0.00  0.00     0.151 C 
ATOM      7  C           0     130.987 131.185 133.925  0.00  0.00     0.180 C 
ATOM      8  N           0     130.561 131.544 135.296  0.00  0.00    -0.216 N 
ATOM      9  C           0     130.913 132.854 135.509  0.00  0.00     0.670 C 
ATOM     10  N           0     131.029 133.398 136.689  0.00  0.00    -0.235 N 
ATOM     11  H           0     130.863 132.869 137.484  0.00  0.00     0.174 HD
ATOM     12  H           0     131.283 134.331 136.769  0.00  0.00     0.174 HD
ATOM     13  C           0     131.184 132.528 133.241  0.00  0.00     0.217 C 
ATOM     14  N           0     131.129 133.519 134.328  0.00  0.00    -0.191 N 
ATOM     15  N           0     130.183 132.821 132.214  0.00  0.00    -0.183 N 
ATOM     16  C           0     130.774 133.888 131.387  0.00  0.00     0.150 C 
ATOM     17  C           0     132.273 133.513 131.291  0.00  0.00     0.093 C 
ATOM     18  C           0     132.542 132.614 132.524  0.00  0.00     0.209 C 
ATOM     19  H           0     127.865 130.816 133.092  0.00  0.00     0.178 HD
ATOM     20  H           0     130.114 130.960 135.928  0.00  0.00     0.178 HD
ATOM     21  H           0     131.230 134.479 134.228  0.00  0.00     0.180 HD
ENDROOT
BRANCH   6  22
ATOM     22  C           0     130.535 129.594 132.082  0.00  0.00     0.208 C 
BRANCH  22  23
ATOM     23  O           0     131.636 128.758 132.527  0.00  0.00    -0.302 OA
BRANCH  23  24
ATOM     24  C           0     131.430 127.450 132.772  0.00  0.00     0.362 C 
ATOM     25  N           0     132.478 126.604 132.840  0.00  0.00    -0.337 N 
ATOM     26  C           0     132.256 125.181 133.107  0.00  0.00     0.154 C 
ATOM     27  C           0     133.840 127.108 132.646  0.00  0.00     0.154 C 
ATOM     28  O           0     130.302 127.031 132.933  0.00  0.00    -0.238 OA
ENDBRANCH  23  24
ENDBRANCH  22  23
ENDBRANCH   6  22
BRANCH  18  29
ATOM     29  O           0     133.523 133.213 133.374  0.00  0.00    -0.362 OA
ATOM     30  H           0     133.300 134.152 133.438  0.00  0.00     0.213 HD
ENDBRANCH  18  29
BRANCH  18  31
ATOM     31  O           0     132.967 131.314 132.108  0.00  0.00    -0.362 OA
ATOM     32  H           0     133.052 131.342 131.146  0.00  0.00     0.213 HD
ENDBRANCH  18  31
TORSDOF 5
ENDMDL
