# created with PyMOL 2.3.4
@<TRIPOS>MOLECULE
ligand_out_0001
32 34 1                 
SMALL
USER_CHARGES
@<TRIPOS>ATOM
1	   N	134.961	132.175	146.670	N.3	1	UNK0	-0.235	
2	   N	136.409	133.910	146.016	N.3	1	UNK0	-0.218	
3	   N	136.115	135.919	143.698	N.3	1	UNK0	-0.216	
4	   N	134.283	136.909	142.575	N.3	1	UNK0	-0.235	
5	   N	134.449	134.576	142.936	N.3	1	UNK0	-0.191	
6	   N	135.132	132.791	144.418	N.3	1	UNK0	-0.183	
7	   N	139.965	130.777	146.710	N.pl3	1	UNK0	-0.337	
8	   C	135.476	132.927	145.737	C.3	1	UNK0	0.672	
9	   C	137.372	134.263	144.977	C.3	1	UNK0	0.151	
10	   C	136.713	134.567	143.646	C.3	1	UNK0	0.180	
11	   C	134.910	135.865	143.041	C.3	1	UNK0	0.670	
12	   C	135.538	133.661	143.313	C.3	1	UNK0	0.217	
13	   C	134.332	131.720	143.796	C.3	1	UNK0	0.150	
14	   C	135.059	131.424	142.462	C.3	1	UNK0	0.093	
15	   C	135.855	132.715	142.144	C.3	1	UNK0	0.209	
16	   C	138.345	133.096	144.789	C.2	1	UNK0	0.208	
17	   C	140.053	131.970	146.089	C.2	1	UNK0	0.362	
18	   C	141.125	129.883	146.747	C.3	1	UNK0	0.154	
19	   C	138.710	130.374	147.350	C.3	1	UNK0	0.154	
20	   O	138.986	132.792	146.055	O.2	1	UNK0	-0.302	
21	   O	141.093	132.304	145.559	O.co2	1	UNK0	-0.238	
22	   O	135.416	133.279	140.906	O.2	1	UNK0	-0.362	
23	   O	137.256	132.436	142.096	O.2	1	UNK0	-0.362	
24	   H	135.230	132.296	147.594	 H	1	UNK0	0.174	
25	   H	134.305	131.498	146.440	 H	1	UNK0	0.174	
26	   H	134.666	137.792	142.684	 H	1	UNK0	0.174	
27	   H	133.433	136.800	142.120	 H	1	UNK0	0.174	
28	   H	136.423	134.354	146.879	 H	1	UNK0	0.178	
29	   H	136.503	136.701	144.120	 H	1	UNK0	0.178	
30	   H	133.557	134.314	142.657	 H	1	UNK0	0.180	
31	   H	134.931	132.585	140.439	 H	1	UNK0	0.213	
32	   H	137.460	132.185	141.185	 H	1	UNK0	0.213	
@<TRIPOS>BOND
1 1 8 1
2 1 24 1
3 1 25 1
4 2 9 1
5 2 28 1
6 3 11 1
7 3 29 1
8 4 26 1
9 4 27 1
10 5 30 1
11 6 13 1
12 7 18 1
13 7 19 1
14 2 8 1
15 6 8 1
16 9 10 1
17 9 16 1
18 3 10 1
19 10 12 1
20 4 11 1
21 5 11 1
22 5 12 1
23 6 12 1
24 12 15 1
25 13 14 1
26 14 15 1
27 15 22 2
28 15 23 2
29 16 20 2
30 7 17 1
31 17 21 2
32 17 20 2
33 22 31 1
34 23 32 1
@<TRIPOS>SUBSTRUCTURE
1	UNK0	1	GROUP	1 ****	UNK
