MODEL 1
REMARK VINA RESULT:      -8.2      0.000      0.000
REMARK  5 active torsions:
REMARK  status: ('A' for Active; 'I' for Inactive)
REMARK    1  A    between atoms: C_6  and  C_7 
REMARK    2  A    between atoms: C_7  and  O_8 
REMARK    3  A    between atoms: O_8  and  C_9 
REMARK       I    between atoms: C_9  and  N_10 
REMARK    4  A    between atoms: C_24  and  O_25 
REMARK    5  A    between atoms: C_24  and  O_26 
ROOT
ATOM      1  N           0     135.520 136.711 143.291  0.00  0.00    -0.235 N 
ATOM      2  H           0     134.792 137.318 143.084  0.00  0.00     0.174 HD
ATOM      3  H           0     136.419 137.055 143.407  0.00  0.00     0.174 HD
ATOM      4  C           0     135.289 135.435 143.419  0.00  0.00     0.672 C 
ATOM      5  N           0     134.023 134.898 143.269  0.00  0.00    -0.218 N 
ATOM      6  C           0     133.905 133.521 142.796  0.00  0.00     0.151 C 
ATOM      7  C           0     134.760 132.556 143.595  0.00  0.00     0.180 C 
ATOM      8  N           0     134.092 132.269 144.884  0.00  0.00    -0.216 N 
ATOM      9  C           0     135.064 132.224 145.854  0.00  0.00     0.670 C 
ATOM     10  N           0     134.912 131.654 147.016  0.00  0.00    -0.235 N 
ATOM     11  H           0     134.071 131.227 147.241  0.00  0.00     0.174 HD
ATOM     12  H           0     135.640 131.658 147.656  0.00  0.00     0.174 HD
ATOM     13  C           0     136.113 133.115 144.003  0.00  0.00     0.217 C 
ATOM     14  N           0     136.215 132.853 145.446  0.00  0.00    -0.191 N 
ATOM     15  N           0     136.288 134.537 143.707  0.00  0.00    -0.179 N 
ATOM     16  C           0     137.736 134.792 143.719  0.00  0.00     0.106 C 
ATOM     17  C           0     138.167 135.295 145.099  0.00  0.00     0.033 C 
ATOM     18  C           0     138.427 133.448 143.408  0.00  0.00     0.098 C 
ATOM     19  C           0     137.271 132.421 143.257  0.00  0.00     0.210 C 
ATOM     20  H           0     133.233 135.423 143.473  0.00  0.00     0.178 HD
ATOM     21  H           0     133.141 132.137 145.019  0.00  0.00     0.178 HD
ATOM     22  H           0     136.967 133.082 146.014  0.00  0.00     0.180 HD
ENDROOT
BRANCH   6  23
ATOM     23  C           0     134.336 133.463 141.330  0.00  0.00     0.208 C 
BRANCH  23  24
ATOM     24  O           0     133.204 133.783 140.479  0.00  0.00    -0.302 OA
BRANCH  24  25
ATOM     25  C           0     133.304 134.769 139.567  0.00  0.00     0.358 C 
ATOM     26  N           0     133.572 136.028 139.964  0.00  0.00    -0.346 N 
ATOM     27  H           0     133.692 136.225 140.906  0.00  0.00     0.161 HD
ATOM     28  H           0     133.643 136.739 139.307  0.00  0.00     0.161 HD
ATOM     29  O           0     133.152 134.522 138.387  0.00  0.00    -0.239 OA
ENDBRANCH  24  25
ENDBRANCH  23  24
ENDBRANCH   6  23
BRANCH  19  30
ATOM     30  O           0     137.611 131.179 143.876  0.00  0.00    -0.362 OA
ATOM     31  H           0     137.053 131.096 144.660  0.00  0.00     0.213 HD
ENDBRANCH  19  30
BRANCH  19  32
ATOM     32  O           0     136.939 132.230 141.880  0.00  0.00    -0.362 OA
ATOM     33  H           0     137.713 132.498 141.366  0.00  0.00     0.213 HD
ENDBRANCH  19  32
TORSDOF 5
ENDMDL
MODEL 2
REMARK VINA RESULT:      -7.5      1.758      1.979
REMARK  5 active torsions:
REMARK  status: ('A' for Active; 'I' for Inactive)
REMARK    1  A    between atoms: C_6  and  C_7 
REMARK    2  A    between atoms: C_7  and  O_8 
REMARK    3  A    between atoms: O_8  and  C_9 
REMARK       I    between atoms: C_9  and  N_10 
REMARK    4  A    between atoms: C_24  and  O_25 
REMARK    5  A    between atoms: C_24  and  O_26 
ROOT
ATOM      1  N           0     136.456 135.858 143.594  0.00  0.00    -0.235 N 
ATOM      2  H           0     135.812 136.446 143.170  0.00  0.00     0.174 HD
ATOM      3  H           0     137.388 136.121 143.653  0.00  0.00     0.174 HD
ATOM      4  C           0     136.069 134.717 144.089  0.00  0.00     0.672 C 
ATOM      5  N           0     134.751 134.300 144.035  0.00  0.00    -0.218 N 
ATOM      6  C           0     134.477 132.866 143.997  0.00  0.00     0.151 C 
ATOM      7  C           0     135.190 132.108 145.101  0.00  0.00     0.180 C 
ATOM      8  N           0     134.464 132.307 146.374  0.00  0.00    -0.216 N 
ATOM      9  C           0     135.401 132.459 147.367  0.00  0.00     0.670 C 
ATOM     10  N           0     135.154 132.295 148.636  0.00  0.00    -0.235 N 
ATOM     11  H           0     134.263 132.052 148.931  0.00  0.00     0.174 HD
ATOM     12  H           0     135.863 132.418 149.287  0.00  0.00     0.174 HD
ATOM     13  C           0     136.591 132.615 145.398  0.00  0.00     0.217 C 
ATOM     14  N           0     136.628 132.802 146.856  0.00  0.00    -0.191 N 
ATOM     15  N           0     136.945 133.849 144.695  0.00  0.00    -0.179 N 
ATOM     16  C           0     138.412 133.936 144.715  0.00  0.00     0.106 C 
ATOM     17  C           0     138.869 134.790 145.899  0.00  0.00     0.033 C 
ATOM     18  C           0     138.942 132.495 144.868  0.00  0.00     0.098 C 
ATOM     19  C           0     137.673 131.604 144.968  0.00  0.00     0.210 C 
ATOM     20  H           0     134.026 134.945 144.024  0.00  0.00     0.178 HD
ATOM     21  H           0     133.500 132.328 146.487  0.00  0.00     0.178 HD
ATOM     22  H           0     137.390 133.112 147.371  0.00  0.00     0.180 HD
ENDROOT
BRANCH   6  23
ATOM     23  C           0     134.931 132.312 142.646  0.00  0.00     0.208 C 
BRANCH  23  24
ATOM     24  O           0     133.769 131.987 141.840  0.00  0.00    -0.302 OA
BRANCH  24  25
ATOM     25  C           0     132.888 132.950 141.509  0.00  0.00     0.358 C 
ATOM     26  N           0     131.567 132.681 141.499  0.00  0.00    -0.346 N 
ATOM     27  H           0     131.252 131.793 141.730  0.00  0.00     0.161 HD
ATOM     28  H           0     130.933 133.375 141.261  0.00  0.00     0.161 HD
ATOM     29  O           0     133.284 134.062 141.219  0.00  0.00    -0.239 OA
ENDBRANCH  24  25
ENDBRANCH  23  24
ENDBRANCH   6  23
BRANCH  19  30
ATOM     30  O           0     137.846 130.583 145.954  0.00  0.00    -0.362 OA
ATOM     31  H           0     138.199 131.015 146.743  0.00  0.00     0.213 HD
ENDBRANCH  19  30
BRANCH  19  32
ATOM     32  O           0     137.352 131.034 143.697  0.00  0.00    -0.362 OA
ATOM     33  H           0     136.662 131.589 143.308  0.00  0.00     0.213 HD
ENDBRANCH  19  32
TORSDOF 5
ENDMDL
MODEL 3
REMARK VINA RESULT:      -7.4      3.867      5.783
REMARK  5 active torsions:
REMARK  status: ('A' for Active; 'I' for Inactive)
REMARK    1  A    between atoms: C_6  and  C_7 
REMARK    2  A    between atoms: C_7  and  O_8 
REMARK    3  A    between atoms: O_8  and  C_9 
REMARK       I    between atoms: C_9  and  N_10 
REMARK    4  A    between atoms: C_24  and  O_25 
REMARK    5  A    between atoms: C_24  and  O_26 
ROOT
ATOM      1  N           0     138.491 133.522 142.560  0.00  0.00    -0.235 N 
ATOM      2  H           0     139.307 133.864 142.162  0.00  0.00     0.174 HD
ATOM      3  H           0     137.719 133.340 142.001  0.00  0.00     0.174 HD
ATOM      4  C           0     138.434 133.299 143.842  0.00  0.00     0.672 C 
ATOM      5  N           0     139.511 133.536 144.679  0.00  0.00    -0.218 N 
ATOM      6  C           0     139.244 133.885 146.071  0.00  0.00     0.151 C 
ATOM      7  C           0     138.299 132.910 146.745  0.00  0.00     0.180 C 
ATOM      8  N           0     139.042 131.681 147.100  0.00  0.00    -0.216 N 
ATOM      9  C           0     138.220 130.610 146.844  0.00  0.00     0.670 C 
ATOM     10  N           0     138.385 129.423 147.356  0.00  0.00    -0.235 N 
ATOM     11  H           0     139.126 129.252 147.958  0.00  0.00     0.174 HD
ATOM     12  H           0     137.767 128.709 147.134  0.00  0.00     0.174 HD
ATOM     13  C           0     137.177 132.411 145.851  0.00  0.00     0.217 C 
ATOM     14  N           0     137.204 130.946 145.984  0.00  0.00    -0.191 N 
ATOM     15  N           0     137.300 132.819 144.451  0.00  0.00    -0.179 N 
ATOM     16  C           0     135.965 132.672 143.853  0.00  0.00     0.106 C 
ATOM     17  C           0     135.845 131.307 143.171  0.00  0.00     0.033 C 
ATOM     18  C           0     134.946 132.776 145.008  0.00  0.00     0.098 C 
ATOM     19  C           0     135.803 132.955 146.291  0.00  0.00     0.210 C 
ATOM     20  H           0     140.420 133.470 144.348  0.00  0.00     0.178 HD
ATOM     21  H           0     139.947 131.639 147.449  0.00  0.00     0.178 HD
ATOM     22  H           0     136.606 130.324 145.543  0.00  0.00     0.180 HD
ENDROOT
BRANCH   6  23
ATOM     23  C           0     138.625 135.284 146.119  0.00  0.00     0.208 C 
BRANCH  23  24
ATOM     24  O           0     139.539 136.240 145.522  0.00  0.00    -0.302 OA
BRANCH  24  25
ATOM     25  C           0     139.883 137.354 146.194  0.00  0.00     0.358 C 
ATOM     26  N           0     139.149 137.758 147.249  0.00  0.00    -0.346 N 
ATOM     27  H           0     138.372 137.246 147.524  0.00  0.00     0.161 HD
ATOM     28  H           0     139.397 138.562 147.733  0.00  0.00     0.161 HD
ATOM     29  O           0     140.855 137.996 145.849  0.00  0.00    -0.239 OA
ENDBRANCH  24  25
ENDBRANCH  23  24
ENDBRANCH   6  23
BRANCH  19  30
ATOM     30  O           0     135.267 132.188 147.371  0.00  0.00    -0.362 OA
ATOM     31  H           0     136.002 131.994 147.967  0.00  0.00     0.213 HD
ENDBRANCH  19  30
BRANCH  19  32
ATOM     32  O           0     135.901 134.336 146.648  0.00  0.00    -0.362 OA
ATOM     33  H           0     136.290 134.793 145.890  0.00  0.00     0.213 HD
ENDBRANCH  19  32
TORSDOF 5
ENDMDL
MODEL 4
REMARK VINA RESULT:      -7.4      2.636      4.283
REMARK  5 active torsions:
REMARK  status: ('A' for Active; 'I' for Inactive)
REMARK    1  A    between atoms: C_6  and  C_7 
REMARK    2  A    between atoms: C_7  and  O_8 
REMARK    3  A    between atoms: O_8  and  C_9 
REMARK       I    between atoms: C_9  and  N_10 
REMARK    4  A    between atoms: C_24  and  O_25 
REMARK    5  A    between atoms: C_24  and  O_26 
ROOT
ATOM      1  N           0     135.063 129.931 145.275  0.00  0.00    -0.235 N 
ATOM      2  H           0     134.712 129.368 144.568  0.00  0.00     0.174 HD
ATOM      3  H           0     134.887 129.711 146.203  0.00  0.00     0.174 HD
ATOM      4  C           0     135.778 130.980 144.979  0.00  0.00     0.672 C 
ATOM      5  N           0     136.063 131.330 143.671  0.00  0.00    -0.218 N 
ATOM      6  C           0     136.276 132.741 143.361  0.00  0.00     0.151 C 
ATOM      7  C           0     137.293 133.391 144.279  0.00  0.00     0.180 C 
ATOM      8  N           0     138.653 132.996 143.853  0.00  0.00    -0.216 N 
ATOM      9  C           0     139.395 132.770 144.987  0.00  0.00     0.670 C 
ATOM     10  N           0     140.698 132.760 145.020  0.00  0.00    -0.235 N 
ATOM     11  H           0     141.205 132.918 144.208  0.00  0.00     0.174 HD
ATOM     12  H           0     141.160 132.594 145.856  0.00  0.00     0.174 HD
ATOM     13  C           0     137.215 132.925 145.723  0.00  0.00     0.217 C 
ATOM     14  N           0     138.593 132.558 146.082  0.00  0.00    -0.191 N 
ATOM     15  N           0     136.294 131.809 145.944  0.00  0.00    -0.179 N 
ATOM     16  C           0     135.989 131.796 147.382  0.00  0.00     0.106 C 
ATOM     17  C           0     136.923 130.825 148.107  0.00  0.00     0.033 C 
ATOM     18  C           0     136.217 133.233 147.899  0.00  0.00     0.098 C 
ATOM     19  C           0     136.703 134.037 146.661  0.00  0.00     0.210 C 
ATOM     20  H           0     136.119 130.655 142.977  0.00  0.00     0.178 HD
ATOM     21  H           0     138.965 132.912 142.938  0.00  0.00     0.178 HD
ATOM     22  H           0     138.888 132.226 146.944  0.00  0.00     0.180 HD
ENDROOT
BRANCH   6  23
ATOM     23  C           0     134.945 133.484 143.497  0.00  0.00     0.208 C 
BRANCH  23  24
ATOM     24  O           0     135.172 134.912 143.374  0.00  0.00    -0.302 OA
BRANCH  24  25
ATOM     25  C           0     134.372 135.656 142.587  0.00  0.00     0.358 C 
ATOM     26  N           0     134.440 137.001 142.638  0.00  0.00    -0.346 N 
ATOM     27  H           0     135.064 137.433 143.242  0.00  0.00     0.161 HD
ATOM     28  H           0     133.863 137.537 142.070  0.00  0.00     0.161 HD
ATOM     29  O           0     133.590 135.115 141.831  0.00  0.00    -0.239 OA
ENDBRANCH  24  25
ENDBRANCH  23  24
ENDBRANCH   6  23
BRANCH  19  30
ATOM     30  O           0     137.757 134.933 147.021  0.00  0.00    -0.362 OA
ATOM     31  H           0     138.218 135.164 146.203  0.00  0.00     0.213 HD
ENDBRANCH  19  30
BRANCH  19  32
ATOM     32  O           0     135.618 134.744 146.057  0.00  0.00    -0.362 OA
ATOM     33  H           0     135.934 135.640 145.877  0.00  0.00     0.213 HD
ENDBRANCH  19  32
TORSDOF 5
ENDMDL
MODEL 5
REMARK VINA RESULT:      -7.3      3.163      5.862
REMARK  5 active torsions:
REMARK  status: ('A' for Active; 'I' for Inactive)
REMARK    1  A    between atoms: C_6  and  C_7 
REMARK    2  A    between atoms: C_7  and  O_8 
REMARK    3  A    between atoms: O_8  and  C_9 
REMARK       I    between atoms: C_9  and  N_10 
REMARK    4  A    between atoms: C_24  and  O_25 
REMARK    5  A    between atoms: C_24  and  O_26 
ROOT
ATOM      1  N           0     139.001 130.548 145.987  0.00  0.00    -0.235 N 
ATOM      2  H           0     139.168 129.670 146.364  0.00  0.00     0.174 HD
ATOM      3  H           0     139.744 131.101 145.698  0.00  0.00     0.174 HD
ATOM      4  C           0     137.779 130.983 145.864  0.00  0.00     0.672 C 
ATOM      5  N           0     136.687 130.230 146.256  0.00  0.00    -0.218 N 
ATOM      6  C           0     135.482 130.930 146.692  0.00  0.00     0.151 C 
ATOM      7  C           0     135.026 131.979 145.697  0.00  0.00     0.180 C 
ATOM      8  N           0     134.343 131.313 144.567  0.00  0.00    -0.216 N 
ATOM      9  C           0     134.723 131.956 143.414  0.00  0.00     0.670 C 
ATOM     10  N           0     134.067 131.890 142.289  0.00  0.00    -0.235 N 
ATOM     11  H           0     133.256 131.361 142.230  0.00  0.00     0.174 HD
ATOM     12  H           0     134.391 132.369 141.511  0.00  0.00     0.174 HD
ATOM     13  C           0     136.161 132.744 145.036  0.00  0.00     0.217 C 
ATOM     14  N           0     135.878 132.676 143.594  0.00  0.00    -0.191 N 
ATOM     15  N           0     137.493 132.220 145.340  0.00  0.00    -0.179 N 
ATOM     16  C           0     138.446 133.297 145.034  0.00  0.00     0.106 C 
ATOM     17  C           0     138.991 133.127 143.614  0.00  0.00     0.033 C 
ATOM     18  C           0     137.667 134.625 145.144  0.00  0.00     0.098 C 
ATOM     19  C           0     136.210 134.214 145.496  0.00  0.00     0.210 C 
ATOM     20  H           0     136.721 129.261 146.241  0.00  0.00     0.178 HD
ATOM     21  H           0     133.736 130.558 144.629  0.00  0.00     0.178 HD
ATOM     22  H           0     136.413 133.075 142.890  0.00  0.00     0.180 HD
ENDROOT
BRANCH   6  23
ATOM     23  C           0     135.763 131.611 148.032  0.00  0.00     0.208 C 
BRANCH  23  24
ATOM     24  O           0     134.543 132.216 148.535  0.00  0.00    -0.302 OA
BRANCH  24  25
ATOM     25  C           0     133.657 131.473 149.224  0.00  0.00     0.358 C 
ATOM     26  N           0     132.343 131.765 149.166  0.00  0.00    -0.346 N 
ATOM     27  H           0     132.035 132.513 148.629  0.00  0.00     0.161 HD
ATOM     28  H           0     131.704 131.229 149.663  0.00  0.00     0.161 HD
ATOM     29  O           0     134.042 130.537 149.897  0.00  0.00    -0.239 OA
ENDBRANCH  24  25
ENDBRANCH  23  24
ENDBRANCH   6  23
BRANCH  19  30
ATOM     30  O           0     135.270 135.012 144.775  0.00  0.00    -0.362 OA
ATOM     31  H           0     135.544 135.932 144.883  0.00  0.00     0.213 HD
ENDBRANCH  19  30
BRANCH  19  32
ATOM     32  O           0     135.983 134.308 146.904  0.00  0.00    -0.362 OA
ATOM     33  H           0     136.850 134.402 147.321  0.00  0.00     0.213 HD
ENDBRANCH  19  32
TORSDOF 5
ENDMDL
MODEL 6
REMARK VINA RESULT:      -7.0      2.602      3.842
REMARK  5 active torsions:
REMARK  status: ('A' for Active; 'I' for Inactive)
REMARK    1  A    between atoms: C_6  and  C_7 
REMARK    2  A    between atoms: C_7  and  O_8 
REMARK    3  A    between atoms: O_8  and  C_9 
REMARK       I    between atoms: C_9  and  N_10 
REMARK    4  A    between atoms: C_24  and  O_25 
REMARK    5  A    between atoms: C_24  and  O_26 
ROOT
ATOM      1  N           0     138.476 135.295 146.926  0.00  0.00    -0.235 N 
ATOM      2  H           0     138.314 136.185 146.574  0.00  0.00     0.174 HD
ATOM      3  H           0     139.222 135.141 147.528  0.00  0.00     0.174 HD
ATOM      4  C           0     137.690 134.310 146.596  0.00  0.00     0.672 C 
ATOM      5  N           0     136.611 134.482 145.747  0.00  0.00    -0.218 N 
ATOM      6  C           0     136.182 133.349 144.932  0.00  0.00     0.151 C 
ATOM      7  C           0     135.970 132.090 145.752  0.00  0.00     0.180 C 
ATOM      8  N           0     134.678 132.187 146.464  0.00  0.00    -0.216 N 
ATOM      9  C           0     134.858 131.665 147.723  0.00  0.00     0.670 C 
ATOM     10  N           0     133.887 131.257 148.491  0.00  0.00    -0.235 N 
ATOM     11  H           0     132.969 131.313 148.184  0.00  0.00     0.174 HD
ATOM     12  H           0     134.084 130.898 149.370  0.00  0.00     0.174 HD
ATOM     13  C           0     136.986 131.894 146.864  0.00  0.00     0.217 C 
ATOM     14  N           0     136.186 131.627 148.069  0.00  0.00    -0.191 N 
ATOM     15  N           0     137.883 133.033 147.065  0.00  0.00    -0.179 N 
ATOM     16  C           0     139.046 132.525 147.807  0.00  0.00     0.106 C 
ATOM     17  C           0     138.850 132.752 149.307  0.00  0.00     0.033 C 
ATOM     18  C           0     139.137 131.013 147.509  0.00  0.00     0.098 C 
ATOM     19  C           0     137.929 130.707 146.582  0.00  0.00     0.210 C 
ATOM     20  H           0     136.152 135.335 145.695  0.00  0.00     0.178 HD
ATOM     21  H           0     133.853 132.552 146.108  0.00  0.00     0.178 HD
ATOM     22  H           0     136.536 131.450 148.957  0.00  0.00     0.180 HD
ENDROOT
BRANCH   6  23
ATOM     23  C           0     137.247 133.072 143.870  0.00  0.00     0.208 C 
BRANCH  23  24
ATOM     24  O           0     136.762 132.059 142.949  0.00  0.00    -0.302 OA
BRANCH  24  25
ATOM     25  C           0     135.689 132.311 142.176  0.00  0.00     0.358 C 
ATOM     26  N           0     135.789 133.169 141.142  0.00  0.00    -0.346 N 
ATOM     27  H           0     136.635 133.607 140.956  0.00  0.00     0.161 HD
ATOM     28  H           0     135.015 133.350 140.585  0.00  0.00     0.161 HD
ATOM     29  O           0     134.630 131.762 142.410  0.00  0.00    -0.239 OA
ENDBRANCH  24  25
ENDBRANCH  23  24
ENDBRANCH   6  23
BRANCH  19  30
ATOM     30  O           0     137.316 129.466 146.939  0.00  0.00    -0.362 OA
ATOM     31  H           0     136.367 129.632 147.002  0.00  0.00     0.213 HD
ENDBRANCH  19  30
BRANCH  19  32
ATOM     32  O           0     138.330 130.700 145.211  0.00  0.00    -0.362 OA
ATOM     33  H           0     138.411 131.624 144.938  0.00  0.00     0.213 HD
ENDBRANCH  19  32
TORSDOF 5
ENDMDL
MODEL 7
REMARK VINA RESULT:      -6.8      2.840      4.305
REMARK  5 active torsions:
REMARK  status: ('A' for Active; 'I' for Inactive)
REMARK    1  A    between atoms: C_6  and  C_7 
REMARK    2  A    between atoms: C_7  and  O_8 
REMARK    3  A    between atoms: O_8  and  C_9 
REMARK       I    between atoms: C_9  and  N_10 
REMARK    4  A    between atoms: C_24  and  O_25 
REMARK    5  A    between atoms: C_24  and  O_26 
ROOT
ATOM      1  N           0     135.985 134.412 147.072  0.00  0.00    -0.235 N 
ATOM      2  H           0     135.419 135.040 146.595  0.00  0.00     0.174 HD
ATOM      3  H           0     136.594 134.732 147.755  0.00  0.00     0.174 HD
ATOM      4  C           0     135.920 133.140 146.800  0.00  0.00     0.672 C 
ATOM      5  N           0     135.062 132.636 145.838  0.00  0.00    -0.218 N 
ATOM      6  C           0     135.444 131.411 145.140  0.00  0.00     0.151 C 
ATOM      7  C           0     135.831 130.295 146.092  0.00  0.00     0.180 C 
ATOM      8  N           0     134.604 129.697 146.662  0.00  0.00    -0.216 N 
ATOM      9  C           0     134.848 129.435 147.989  0.00  0.00     0.670 C 
ATOM     10  N           0     134.153 128.600 148.709  0.00  0.00    -0.235 N 
ATOM     11  H           0     133.410 128.119 148.313  0.00  0.00     0.174 HD
ATOM     12  H           0     134.379 128.461 149.642  0.00  0.00     0.174 HD
ATOM     13  C           0     136.610 130.759 147.311  0.00  0.00     0.217 C 
ATOM     14  N           0     135.915 130.160 148.460  0.00  0.00    -0.191 N 
ATOM     15  N           0     136.702 132.214 147.446  0.00  0.00    -0.179 N 
ATOM     16  C           0     137.829 132.480 148.352  0.00  0.00     0.106 C 
ATOM     17  C           0     137.319 132.643 149.786  0.00  0.00     0.033 C 
ATOM     18  C           0     138.770 131.260 148.262  0.00  0.00     0.098 C 
ATOM     19  C           0     138.076 130.283 147.273  0.00  0.00     0.210 C 
ATOM     20  H           0     134.226 133.084 145.634  0.00  0.00     0.178 HD
ATOM     21  H           0     133.777 129.522 146.186  0.00  0.00     0.178 HD
ATOM     22  H           0     136.167 130.257 149.392  0.00  0.00     0.180 HD
ENDROOT
BRANCH   6  23
ATOM     23  C           0     136.633 131.714 144.227  0.00  0.00     0.208 C 
BRANCH  23  24
ATOM     24  O           0     136.175 131.821 142.854  0.00  0.00    -0.302 OA
BRANCH  24  25
ATOM     25  C           0     135.954 133.032 142.310  0.00  0.00     0.358 C 
ATOM     26  N           0     135.775 133.151 140.979  0.00  0.00    -0.346 N 
ATOM     27  H           0     135.807 132.364 140.413  0.00  0.00     0.161 HD
ATOM     28  H           0     135.616 134.025 140.588  0.00  0.00     0.161 HD
ATOM     29  O           0     135.915 134.018 143.019  0.00  0.00    -0.239 OA
ENDBRANCH  24  25
ENDBRANCH  23  24
ENDBRANCH   6  23
BRANCH  19  30
ATOM     30  O           0     138.191 128.933 147.729  0.00  0.00    -0.362 OA
ATOM     31  H           0     137.673 128.389 147.122  0.00  0.00     0.213 HD
ENDBRANCH  19  30
BRANCH  19  32
ATOM     32  O           0     138.617 130.423 145.958  0.00  0.00    -0.362 OA
ATOM     33  H           0     138.041 129.923 145.364  0.00  0.00     0.213 HD
ENDBRANCH  19  32
TORSDOF 5
ENDMDL
MODEL 8
REMARK VINA RESULT:      -6.7      2.963      4.736
REMARK  5 active torsions:
REMARK  status: ('A' for Active; 'I' for Inactive)
REMARK    1  A    between atoms: C_6  and  C_7 
REMARK    2  A    between atoms: C_7  and  O_8 
REMARK    3  A    between atoms: O_8  and  C_9 
REMARK       I    between atoms: C_9  and  N_10 
REMARK    4  A    between atoms: C_24  and  O_25 
REMARK    5  A    between atoms: C_24  and  O_26 
ROOT
ATOM      1  N           0     139.494 130.707 145.915  0.00  0.00    -0.235 N 
ATOM      2  H           0     140.166 130.832 145.228  0.00  0.00     0.174 HD
ATOM      3  H           0     139.625 130.039 146.606  0.00  0.00     0.174 HD
ATOM      4  C           0     138.417 131.442 145.916  0.00  0.00     0.672 C 
ATOM      5  N           0     138.189 132.412 144.956  0.00  0.00    -0.218 N 
ATOM      6  C           0     136.807 132.734 144.611  0.00  0.00     0.151 C 
ATOM      7  C           0     135.957 133.035 145.830  0.00  0.00     0.180 C 
ATOM      8  N           0     136.255 134.404 146.304  0.00  0.00    -0.216 N 
ATOM      9  C           0     136.275 134.373 147.677  0.00  0.00     0.670 C 
ATOM     10  N           0     136.147 135.426 148.435  0.00  0.00    -0.235 N 
ATOM     11  H           0     136.030 136.301 148.034  0.00  0.00     0.174 HD
ATOM     12  H           0     136.169 135.334 149.400  0.00  0.00     0.174 HD
ATOM     13  C           0     136.263 132.159 147.033  0.00  0.00     0.217 C 
ATOM     14  N           0     136.444 133.096 148.152  0.00  0.00    -0.191 N 
ATOM     15  N           0     137.436 131.299 146.866  0.00  0.00    -0.179 N 
ATOM     16  C           0     137.318 130.230 147.868  0.00  0.00     0.106 C 
ATOM     17  C           0     138.100 130.607 149.129  0.00  0.00     0.033 C 
ATOM     18  C           0     135.817 130.095 148.200  0.00  0.00     0.098 C 
ATOM     19  C           0     135.111 131.182 147.342  0.00  0.00     0.210 C 
ATOM     20  H           0     138.929 132.868 144.525  0.00  0.00     0.178 HD
ATOM     21  H           0     136.410 135.183 145.746  0.00  0.00     0.178 HD
ATOM     22  H           0     136.644 132.854 149.070  0.00  0.00     0.180 HD
ENDROOT
BRANCH   6  23
ATOM     23  C           0     136.195 131.548 143.864  0.00  0.00     0.208 C 
BRANCH  23  24
ATOM     24  O           0     134.794 131.816 143.593  0.00  0.00    -0.302 OA
BRANCH  24  25
ATOM     25  C           0     134.414 132.247 142.376  0.00  0.00     0.358 C 
ATOM     26  N           0     133.117 132.188 142.014  0.00  0.00    -0.346 N 
ATOM     27  H           0     132.458 131.833 142.631  0.00  0.00     0.161 HD
ATOM     28  H           0     132.844 132.499 141.137  0.00  0.00     0.161 HD
ATOM     29  O           0     135.241 132.691 141.603  0.00  0.00    -0.239 OA
ENDBRANCH  24  25
ENDBRANCH  23  24
ENDBRANCH   6  23
BRANCH  19  30
ATOM     30  O           0     134.077 131.825 148.090  0.00  0.00    -0.362 OA
ATOM     31  H           0     133.587 131.127 148.546  0.00  0.00     0.213 HD
ENDBRANCH  19  30
BRANCH  19  32
ATOM     32  O           0     134.592 130.619 146.136  0.00  0.00    -0.362 OA
ATOM     33  H           0     133.632 130.728 146.167  0.00  0.00     0.213 HD
ENDBRANCH  19  32
TORSDOF 5
ENDMDL
MODEL 9
REMARK VINA RESULT:      -6.7      3.867      5.649
REMARK  5 active torsions:
REMARK  status: ('A' for Active; 'I' for Inactive)
REMARK    1  A    between atoms: C_6  and  C_7 
REMARK    2  A    between atoms: C_7  and  O_8 
REMARK    3  A    between atoms: O_8  and  C_9 
REMARK       I    between atoms: C_9  and  N_10 
REMARK    4  A    between atoms: C_24  and  O_25 
REMARK    5  A    between atoms: C_24  and  O_26 
ROOT
ATOM      1  N           0     134.534 131.877 143.745  0.00  0.00    -0.235 N 
ATOM      2  H           0     133.676 131.426 143.699  0.00  0.00     0.174 HD
ATOM      3  H           0     134.940 132.228 142.937  0.00  0.00     0.174 HD
ATOM      4  C           0     135.136 132.018 144.892  0.00  0.00     0.672 C 
ATOM      5  N           0     134.593 131.541 146.071  0.00  0.00    -0.218 N 
ATOM      6  C           0     135.502 131.149 147.145  0.00  0.00     0.151 C 
ATOM      7  C           0     136.518 132.227 147.469  0.00  0.00     0.180 C 
ATOM      8  N           0     135.867 133.280 148.279  0.00  0.00    -0.216 N 
ATOM      9  C           0     136.343 134.493 147.842  0.00  0.00     0.670 C 
ATOM     10  N           0     136.280 135.596 148.534  0.00  0.00    -0.235 N 
ATOM     11  H           0     135.877 135.593 149.416  0.00  0.00     0.174 HD
ATOM     12  H           0     136.636 136.419 148.166  0.00  0.00     0.174 HD
ATOM     13  C           0     137.042 132.974 146.254  0.00  0.00     0.217 C 
ATOM     14  N           0     136.894 134.398 146.588  0.00  0.00    -0.191 N 
ATOM     15  N           0     136.352 132.646 145.006  0.00  0.00    -0.179 N 
ATOM     16  C           0     137.242 133.065 143.913  0.00  0.00     0.106 C 
ATOM     17  C           0     136.869 134.472 143.444  0.00  0.00     0.033 C 
ATOM     18  C           0     138.677 133.061 144.482  0.00  0.00     0.098 C 
ATOM     19  C           0     138.523 132.648 145.972  0.00  0.00     0.210 C 
ATOM     20  H           0     133.632 131.469 146.182  0.00  0.00     0.178 HD
ATOM     21  H           0     135.221 133.140 148.989  0.00  0.00     0.178 HD
ATOM     22  H           0     137.145 135.145 146.021  0.00  0.00     0.180 HD
ENDROOT
BRANCH   6  23
ATOM     23  C           0     136.246 129.881 146.724  0.00  0.00     0.208 C 
BRANCH  23  24
ATOM     24  O           0     135.291 128.809 146.505  0.00  0.00    -0.302 OA
BRANCH  24  25
ATOM     25  C           0     134.508 128.387 147.516  0.00  0.00     0.358 C 
ATOM     26  N           0     133.170 128.345 147.359  0.00  0.00    -0.346 N 
ATOM     27  H           0     132.771 128.620 146.518  0.00  0.00     0.161 HD
ATOM     28  H           0     132.606 128.041 148.088  0.00  0.00     0.161 HD
ATOM     29  O           0     135.007 128.044 148.569  0.00  0.00    -0.239 OA
ENDBRANCH  24  25
ENDBRANCH  23  24
ENDBRANCH   6  23
BRANCH  19  30
ATOM     30  O           0     139.388 133.422 146.805  0.00  0.00    -0.362 OA
ATOM     31  H           0     139.578 134.240 146.326  0.00  0.00     0.213 HD
ENDBRANCH  19  30
BRANCH  19  32
ATOM     32  O           0     138.771 131.251 146.140  0.00  0.00    -0.362 OA
ATOM     33  H           0     139.698 131.161 146.399  0.00  0.00     0.213 HD
ENDBRANCH  19  32
TORSDOF 5
ENDMDL
