# created with PyMOL 2.3.4
@<TRIPOS>MOLECULE
ligand_out_0001
33 35 1                 
SMALL
USER_CHARGES
@<TRIPOS>ATOM
1	   N	135.520	136.711	143.291	N.3	1	UNK0	-0.235	
2	   N	134.023	134.898	143.269	N.3	1	UNK0	-0.218	
3	   N	134.092	132.269	144.884	N.3	1	UNK0	-0.216	
4	   N	134.912	131.654	147.016	N.3	1	UNK0	-0.235	
5	   N	136.215	132.853	145.446	N.3	1	UNK0	-0.191	
6	   N	136.288	134.537	143.707	N.3	1	UNK0	-0.179	
7	   N	133.572	136.028	139.964	N.pl3	1	UNK0	-0.346	
8	   C	135.289	135.435	143.419	C.3	1	UNK0	0.672	
9	   C	133.905	133.521	142.796	C.3	1	UNK0	0.151	
10	   C	134.760	132.556	143.595	C.3	1	UNK0	0.180	
11	   C	135.064	132.224	145.854	C.3	1	UNK0	0.670	
12	   C	136.113	133.115	144.003	C.3	1	UNK0	0.217	
13	   C	137.736	134.792	143.719	C.3	1	UNK0	0.106	
14	   C	138.167	135.295	145.099	C.3	1	UNK0	0.033	
15	   C	138.427	133.448	143.408	C.3	1	UNK0	0.098	
16	   C	137.271	132.421	143.257	C.3	1	UNK0	0.210	
17	   C	134.336	133.463	141.330	C.2	1	UNK0	0.208	
18	   C	133.304	134.769	139.567	C.2	1	UNK0	0.358	
19	   O	133.204	133.783	140.479	O.2	1	UNK0	-0.302	
20	   O	133.152	134.522	138.387	O.co2	1	UNK0	-0.239	
21	   O	137.611	131.179	143.876	O.2	1	UNK0	-0.362	
22	   O	136.939	132.230	141.880	O.2	1	UNK0	-0.362	
23	   H	134.792	137.318	143.084	 H	1	UNK0	0.174	
24	   H	136.419	137.055	143.407	 H	1	UNK0	0.174	
25	   H	134.071	131.227	147.241	 H	1	UNK0	0.174	
26	   H	135.640	131.658	147.656	 H	1	UNK0	0.174	
27	   H	133.233	135.423	143.473	 H	1	UNK0	0.178	
28	   H	133.141	132.137	145.019	 H	1	UNK0	0.178	
29	   H	136.967	133.082	146.014	 H	1	UNK0	0.180	
30	   H	133.692	136.225	140.906	 H	1	UNK0	0.161	
31	   H	133.643	136.739	139.307	 H	1	UNK0	0.161	
32	   H	137.053	131.096	144.660	 H	1	UNK0	0.213	
33	   H	137.713	132.498	141.366	 H	1	UNK0	0.213	
@<TRIPOS>BOND
1 1 8 1
2 1 23 1
3 1 24 1
4 2 9 1
5 2 27 1
6 3 11 1
7 3 28 1
8 4 25 1
9 4 26 1
10 5 29 1
11 6 13 1
12 7 30 1
13 7 31 1
14 2 8 1
15 6 8 1
16 9 10 1
17 9 17 1
18 3 10 1
19 10 12 1
20 4 11 1
21 5 11 1
22 5 12 1
23 6 12 1
24 12 16 1
25 13 14 1
26 13 15 1
27 15 16 1
28 16 21 2
29 16 22 2
30 17 19 2
31 7 18 1
32 18 20 2
33 18 19 2
34 21 32 1
35 22 33 1
@<TRIPOS>SUBSTRUCTURE
1	UNK0	1	GROUP	1 ****	UNK
