MODEL 1
REMARK VINA RESULT:      -7.9      0.000      0.000
REMARK  5 active torsions:
REMARK  status: ('A' for Active; 'I' for Inactive)
REMARK    1  A    between atoms: C_6  and  C_7 
REMARK    2  A    between atoms: C_7  and  O_8 
REMARK    3  A    between atoms: O_8  and  C_9 
REMARK       I    between atoms: C_9  and  N_10 
REMARK    4  A    between atoms: C_23  and  O_24 
REMARK    5  A    between atoms: C_23  and  O_25 
ROOT
ATOM      1  N           0     135.096 136.808 143.198  0.00  0.00    -0.235 N 
ATOM      2  H           0     134.316 137.315 142.927  0.00  0.00     0.174 HD
ATOM      3  H           0     135.926 137.267 143.402  0.00  0.00     0.174 HD
ATOM      4  C           0     135.031 135.509 143.294  0.00  0.00     0.672 C 
ATOM      5  N           0     133.870 134.808 143.018  0.00  0.00    -0.218 N 
ATOM      6  C           0     133.989 133.435 142.537  0.00  0.00     0.151 C 
ATOM      7  C           0     134.886 132.584 143.414  0.00  0.00     0.180 C 
ATOM      8  N           0     134.150 132.203 144.638  0.00  0.00    -0.216 N 
ATOM      9  C           0     135.030 132.272 145.690  0.00  0.00     0.670 C 
ATOM     10  N           0     134.852 131.676 146.835  0.00  0.00    -0.235 N 
ATOM     11  H           0     134.056 131.141 146.984  0.00  0.00     0.174 HD
ATOM     12  H           0     135.515 131.766 147.537  0.00  0.00     0.174 HD
ATOM     13  C           0     136.114 133.312 143.938  0.00  0.00     0.217 C 
ATOM     14  N           0     136.121 133.048 145.387  0.00  0.00    -0.191 N 
ATOM     15  N           0     136.108 134.749 143.668  0.00  0.00    -0.183 N 
ATOM     16  C           0     137.509 135.182 143.826  0.00  0.00     0.150 C 
ATOM     17  C           0     138.338 134.020 143.226  0.00  0.00     0.093 C 
ATOM     18  C           0     137.411 132.781 143.304  0.00  0.00     0.209 C 
ATOM     19  H           0     133.000 135.218 143.142  0.00  0.00     0.178 HD
ATOM     20  H           0     133.215 131.949 144.689  0.00  0.00     0.178 HD
ATOM     21  H           0     136.785 133.365 146.018  0.00  0.00     0.180 HD
ENDROOT
BRANCH   6  22
ATOM     22  C           0     134.563 133.457 141.119  0.00  0.00     0.208 C 
BRANCH  22  23
ATOM     23  O           0     133.505 133.762 140.173  0.00  0.00    -0.302 OA
BRANCH  23  24
ATOM     24  C           0     133.619 134.827 139.356  0.00  0.00     0.358 C 
ATOM     25  N           0     133.509 136.074 139.855  0.00  0.00    -0.346 N 
ATOM     26  H           0     133.349 136.205 140.803  0.00  0.00     0.161 HD
ATOM     27  H           0     133.591 136.841 139.267  0.00  0.00     0.161 HD
ATOM     28  O           0     133.820 134.663 138.169  0.00  0.00    -0.239 OA
ENDBRANCH  23  24
ENDBRANCH  22  23
ENDBRANCH   6  22
BRANCH  18  29
ATOM     29  O           0     137.998 131.772 144.127  0.00  0.00    -0.362 OA
ATOM     30  H           0     138.940 131.747 143.911  0.00  0.00     0.213 HD
ENDBRANCH  18  29
BRANCH  18  31
ATOM     31  O           0     137.151 132.270 141.995  0.00  0.00    -0.362 OA
ATOM     32  H           0     137.854 132.602 141.420  0.00  0.00     0.213 HD
ENDBRANCH  18  31
TORSDOF 5
ENDMDL
MODEL 2
REMARK VINA RESULT:      -7.7      2.078      5.703
REMARK  5 active torsions:
REMARK  status: ('A' for Active; 'I' for Inactive)
REMARK    1  A    between atoms: C_6  and  C_7 
REMARK    2  A    between atoms: C_7  and  O_8 
REMARK    3  A    between atoms: O_8  and  C_9 
REMARK       I    between atoms: C_9  and  N_10 
REMARK    4  A    between atoms: C_23  and  O_24 
REMARK    5  A    between atoms: C_23  and  O_25 
ROOT
ATOM      1  N           0     135.536 132.731 147.100  0.00  0.00    -0.235 N 
ATOM      2  H           0     135.853 132.989 147.979  0.00  0.00     0.174 HD
ATOM      3  H           0     134.924 131.983 147.005  0.00  0.00     0.174 HD
ATOM      4  C           0     135.929 133.388 146.045  0.00  0.00     0.672 C 
ATOM      5  N           0     136.797 134.463 146.128  0.00  0.00    -0.218 N 
ATOM      6  C           0     137.661 134.744 144.985  0.00  0.00     0.151 C 
ATOM      7  C           0     136.894 134.824 143.679  0.00  0.00     0.180 C 
ATOM      8  N           0     136.196 136.124 143.604  0.00  0.00    -0.216 N 
ATOM      9  C           0     134.959 135.900 143.049  0.00  0.00     0.670 C 
ATOM     10  N           0     134.222 136.825 142.503  0.00  0.00    -0.235 N 
ATOM     11  H           0     134.539 137.741 142.471  0.00  0.00     0.174 HD
ATOM     12  H           0     133.357 136.597 142.128  0.00  0.00     0.174 HD
ATOM     13  C           0     135.777 133.801 143.550  0.00  0.00     0.217 C 
ATOM     14  N           0     134.596 134.579 143.141  0.00  0.00    -0.191 N 
ATOM     15  N           0     135.513 133.057 144.782  0.00  0.00    -0.183 N 
ATOM     16  C           0     134.764 131.859 144.361  0.00  0.00     0.150 C 
ATOM     17  C           0     135.425 131.444 143.024  0.00  0.00     0.093 C 
ATOM     18  C           0     136.094 132.734 142.488  0.00  0.00     0.209 C 
ATOM     19  H           0     136.829 135.016 146.924  0.00  0.00     0.178 HD
ATOM     20  H           0     136.546 136.982 143.894  0.00  0.00     0.178 HD
ATOM     21  H           0     133.713 134.219 142.963  0.00  0.00     0.180 HD
ENDROOT
BRANCH   6  22
ATOM     22  C           0     138.709 133.636 144.874  0.00  0.00     0.208 C 
BRANCH  22  23
ATOM     23  O           0     139.446 133.540 146.121  0.00  0.00    -0.302 OA
BRANCH  23  24
ATOM     24  C           0     140.532 132.747 146.202  0.00  0.00     0.358 C 
ATOM     25  N           0     140.960 132.312 147.404  0.00  0.00    -0.346 N 
ATOM     26  H           0     140.487 132.570 148.210  0.00  0.00     0.161 HD
ATOM     27  H           0     141.743 131.742 147.463  0.00  0.00     0.161 HD
ATOM     28  O           0     141.125 132.424 145.192  0.00  0.00    -0.239 OA
ENDBRANCH  23  24
ENDBRANCH  22  23
ENDBRANCH   6  22
BRANCH  18  29
ATOM     29  O           0     135.533 133.099 141.225  0.00  0.00    -0.362 OA
ATOM     30  H           0     135.327 134.043 141.273  0.00  0.00     0.213 HD
ENDBRANCH  18  29
BRANCH  18  31
ATOM     31  O           0     137.507 132.552 142.373  0.00  0.00    -0.362 OA
ATOM     32  H           0     137.837 133.272 141.817  0.00  0.00     0.213 HD
ENDBRANCH  18  31
TORSDOF 5
ENDMDL
MODEL 3
REMARK VINA RESULT:      -7.4      2.589      3.709
REMARK  5 active torsions:
REMARK  status: ('A' for Active; 'I' for Inactive)
REMARK    1  A    between atoms: C_6  and  C_7 
REMARK    2  A    between atoms: C_7  and  O_8 
REMARK    3  A    between atoms: O_8  and  C_9 
REMARK       I    between atoms: C_9  and  N_10 
REMARK    4  A    between atoms: C_23  and  O_24 
REMARK    5  A    between atoms: C_23  and  O_25 
ROOT
ATOM      1  N           0     136.201 134.810 147.686  0.00  0.00    -0.235 N 
ATOM      2  H           0     135.347 134.731 148.139  0.00  0.00     0.174 HD
ATOM      3  H           0     136.745 135.603 147.811  0.00  0.00     0.174 HD
ATOM      4  C           0     136.620 133.848 146.912  0.00  0.00     0.672 C 
ATOM      5  N           0     135.883 132.695 146.705  0.00  0.00    -0.218 N 
ATOM      6  C           0     136.046 131.987 145.439  0.00  0.00     0.151 C 
ATOM      7  C           0     137.500 131.713 145.107  0.00  0.00     0.180 C 
ATOM      8  N           0     137.980 130.579 145.924  0.00  0.00    -0.216 N 
ATOM      9  C           0     139.263 130.868 146.321  0.00  0.00     0.670 C 
ATOM     10  N           0     140.120 129.977 146.734  0.00  0.00    -0.235 N 
ATOM     11  H           0     139.866 129.042 146.776  0.00  0.00     0.174 HD
ATOM     12  H           0     141.012 130.250 147.000  0.00  0.00     0.174 HD
ATOM     13  C           0     138.444 132.849 145.467  0.00  0.00     0.217 C 
ATOM     14  N           0     139.532 132.211 146.228  0.00  0.00    -0.191 N 
ATOM     15  N           0     137.815 133.915 146.246  0.00  0.00    -0.183 N 
ATOM     16  C           0     138.710 135.079 146.108  0.00  0.00     0.150 C 
ATOM     17  C           0     139.192 135.020 144.638  0.00  0.00     0.093 C 
ATOM     18  C           0     139.017 133.539 144.216  0.00  0.00     0.209 C 
ATOM     19  H           0     135.274 132.365 147.385  0.00  0.00     0.178 HD
ATOM     20  H           0     137.481 129.775 146.140  0.00  0.00     0.178 HD
ATOM     21  H           0     140.306 132.662 146.598  0.00  0.00     0.180 HD
ENDROOT
BRANCH   6  22
ATOM     22  C           0     135.435 132.831 144.319  0.00  0.00     0.208 C 
BRANCH  22  23
ATOM     23  O           0     135.488 132.092 143.071  0.00  0.00    -0.302 OA
BRANCH  23  24
ATOM     24  C           0     134.961 132.622 141.951  0.00  0.00     0.358 C 
ATOM     25  N           0     135.766 133.183 141.027  0.00  0.00    -0.346 N 
ATOM     26  H           0     136.726 133.204 141.169  0.00  0.00     0.161 HD
ATOM     27  H           0     135.386 133.565 140.221  0.00  0.00     0.161 HD
ATOM     28  O           0     133.759 132.595 141.774  0.00  0.00    -0.239 OA
ENDBRANCH  23  24
ENDBRANCH  22  23
ENDBRANCH   6  22
BRANCH  18  29
ATOM     29  O           0     140.278 132.970 143.861  0.00  0.00    -0.362 OA
ATOM     30  H           0     140.092 132.120 143.438  0.00  0.00     0.213 HD
ENDBRANCH  18  29
BRANCH  18  31
ATOM     31  O           0     138.097 133.436 143.128  0.00  0.00    -0.362 OA
ATOM     32  H           0     137.713 132.549 143.169  0.00  0.00     0.213 HD
ENDBRANCH  18  31
TORSDOF 5
ENDMDL
MODEL 4
REMARK VINA RESULT:      -7.1      3.154      5.791
REMARK  5 active torsions:
REMARK  status: ('A' for Active; 'I' for Inactive)
REMARK    1  A    between atoms: C_6  and  C_7 
REMARK    2  A    between atoms: C_7  and  O_8 
REMARK    3  A    between atoms: O_8  and  C_9 
REMARK       I    between atoms: C_9  and  N_10 
REMARK    4  A    between atoms: C_23  and  O_24 
REMARK    5  A    between atoms: C_23  and  O_25 
ROOT
ATOM      1  N           0     138.871 130.498 145.959  0.00  0.00    -0.235 N 
ATOM      2  H           0     138.501 129.787 146.505  0.00  0.00     0.174 HD
ATOM      3  H           0     139.820 130.509 145.754  0.00  0.00     0.174 HD
ATOM      4  C           0     138.095 131.438 145.497  0.00  0.00     0.672 C 
ATOM      5  N           0     136.735 131.465 145.757  0.00  0.00    -0.218 N 
ATOM      6  C           0     136.061 132.760 145.780  0.00  0.00     0.151 C 
ATOM      7  C           0     136.347 133.590 144.543  0.00  0.00     0.180 C 
ATOM      8  N           0     135.543 133.074 143.416  0.00  0.00    -0.216 N 
ATOM      9  C           0     136.330 133.119 142.291  0.00  0.00     0.670 C 
ATOM     10  N           0     135.869 133.092 141.072  0.00  0.00    -0.235 N 
ATOM     11  H           0     134.913 133.036 140.917  0.00  0.00     0.174 HD
ATOM     12  H           0     136.481 133.128 140.321  0.00  0.00     0.174 HD
ATOM     13  C           0     137.780 133.491 144.046  0.00  0.00     0.217 C 
ATOM     14  N           0     137.663 133.198 142.608  0.00  0.00    -0.191 N 
ATOM     15  N           0     138.572 132.466 144.727  0.00  0.00    -0.183 N 
ATOM     16  C           0     139.979 132.815 144.454  0.00  0.00     0.150 C 
ATOM     17  C           0     140.011 134.361 144.524  0.00  0.00     0.093 C 
ATOM     18  C           0     138.552 134.807 144.250  0.00  0.00     0.209 C 
ATOM     19  H           0     136.244 130.646 145.919  0.00  0.00     0.178 HD
ATOM     20  H           0     134.626 132.760 143.461  0.00  0.00     0.178 HD
ATOM     21  H           0     138.402 133.083 141.990  0.00  0.00     0.180 HD
ENDROOT
BRANCH   6  22
ATOM     22  C           0     136.527 133.537 147.013  0.00  0.00     0.208 C 
BRANCH  22  23
ATOM     23  O           0     135.562 133.369 148.084  0.00  0.00    -0.302 OA
BRANCH  23  24
ATOM     24  C           0     135.230 132.133 148.505  0.00  0.00     0.358 C 
ATOM     25  N           0     133.936 131.757 148.535  0.00  0.00    -0.346 N 
ATOM     26  H           0     133.244 132.376 148.253  0.00  0.00     0.161 HD
ATOM     27  H           0     133.697 130.867 148.838  0.00  0.00     0.161 HD
ATOM     28  O           0     136.097 131.358 148.856  0.00  0.00    -0.239 OA
ENDBRANCH  23  24
ENDBRANCH  22  23
ENDBRANCH   6  22
BRANCH  18  29
ATOM     29  O           0     138.490 135.614 143.073  0.00  0.00    -0.362 OA
ATOM     30  H           0     137.792 136.267 143.219  0.00  0.00     0.213 HD
ENDBRANCH  18  29
BRANCH  18  31
ATOM     31  O           0     138.029 135.519 145.374  0.00  0.00    -0.362 OA
ATOM     32  H           0     137.337 134.965 145.759  0.00  0.00     0.213 HD
ENDBRANCH  18  31
TORSDOF 5
ENDMDL
MODEL 5
REMARK VINA RESULT:      -6.8      3.302      6.111
REMARK  5 active torsions:
REMARK  status: ('A' for Active; 'I' for Inactive)
REMARK    1  A    between atoms: C_6  and  C_7 
REMARK    2  A    between atoms: C_7  and  O_8 
REMARK    3  A    between atoms: O_8  and  C_9 
REMARK       I    between atoms: C_9  and  N_10 
REMARK    4  A    between atoms: C_23  and  O_24 
REMARK    5  A    between atoms: C_23  and  O_25 
ROOT
ATOM      1  N           0     139.107 130.441 145.974  0.00  0.00    -0.235 N 
ATOM      2  H           0     139.274 129.593 146.414  0.00  0.00     0.174 HD
ATOM      3  H           0     139.844 130.940 145.588  0.00  0.00     0.174 HD
ATOM      4  C           0     137.893 130.908 145.896  0.00  0.00     0.672 C 
ATOM      5  N           0     136.808 130.232 146.427  0.00  0.00    -0.218 N 
ATOM      6  C           0     135.656 131.011 146.869  0.00  0.00     0.151 C 
ATOM      7  C           0     135.167 131.982 145.812  0.00  0.00     0.180 C 
ATOM      8  N           0     134.404 131.241 144.786  0.00  0.00    -0.216 N 
ATOM      9  C           0     134.727 131.775 143.563  0.00  0.00     0.670 C 
ATOM     10  N           0     134.004 131.633 142.488  0.00  0.00    -0.235 N 
ATOM     11  H           0     133.179 131.123 142.522  0.00  0.00     0.174 HD
ATOM     12  H           0     134.290 132.038 141.654  0.00  0.00     0.174 HD
ATOM     13  C           0     136.279 132.656 145.025  0.00  0.00     0.217 C 
ATOM     14  N           0     135.905 132.476 143.612  0.00  0.00    -0.191 N 
ATOM     15  N           0     137.608 132.103 145.289  0.00  0.00    -0.183 N 
ATOM     16  C           0     138.558 133.128 144.819  0.00  0.00     0.150 C 
ATOM     17  C           0     137.899 134.472 145.217  0.00  0.00     0.093 C 
ATOM     18  C           0     136.388 134.155 145.350  0.00  0.00     0.209 C 
ATOM     19  H           0     136.813 129.265 146.502  0.00  0.00     0.178 HD
ATOM     20  H           0     133.786 130.510 144.947  0.00  0.00     0.178 HD
ATOM     21  H           0     136.405 132.801 142.847  0.00  0.00     0.180 HD
ENDROOT
BRANCH   6  22
ATOM     22  C           0     136.045 131.800 148.121  0.00  0.00     0.208 C 
BRANCH  22  23
ATOM     23  O           0     134.853 132.358 148.732  0.00  0.00    -0.302 OA
BRANCH  23  24
ATOM     24  C           0     133.959 131.548 149.331  0.00  0.00     0.358 C 
ATOM     25  N           0     132.651 131.643 149.023  0.00  0.00    -0.346 N 
ATOM     26  H           0     132.352 132.296 148.371  0.00  0.00     0.161 HD
ATOM     27  H           0     132.007 131.060 149.455  0.00  0.00     0.161 HD
ATOM     28  O           0     134.334 130.730 150.148  0.00  0.00    -0.239 OA
ENDBRANCH  23  24
ENDBRANCH  22  23
ENDBRANCH   6  22
BRANCH  18  29
ATOM     29  O           0     135.633 134.929 144.416  0.00  0.00    -0.362 OA
ATOM     30  H           0     134.741 135.015 144.781  0.00  0.00     0.213 HD
ENDBRANCH  18  29
BRANCH  18  31
ATOM     31  O           0     135.942 134.408 146.684  0.00  0.00    -0.362 OA
ATOM     32  H           0     134.975 134.402 146.661  0.00  0.00     0.213 HD
ENDBRANCH  18  31
TORSDOF 5
ENDMDL
MODEL 6
REMARK VINA RESULT:      -6.8      5.341      9.909
REMARK  5 active torsions:
REMARK  status: ('A' for Active; 'I' for Inactive)
REMARK    1  A    between atoms: C_6  and  C_7 
REMARK    2  A    between atoms: C_7  and  O_8 
REMARK    3  A    between atoms: O_8  and  C_9 
REMARK       I    between atoms: C_9  and  N_10 
REMARK    4  A    between atoms: C_23  and  O_24 
REMARK    5  A    between atoms: C_23  and  O_25 
ROOT
ATOM      1  N           0     131.386 132.206 134.865  0.00  0.00    -0.235 N 
ATOM      2  H           0     130.791 131.850 135.542  0.00  0.00     0.174 HD
ATOM      3  H           0     131.762 131.617 134.192  0.00  0.00     0.174 HD
ATOM      4  C           0     131.677 133.477 134.854  0.00  0.00     0.672 C 
ATOM      5  N           0     131.161 134.358 135.789  0.00  0.00    -0.218 N 
ATOM      6  C           0     131.945 135.543 136.128  0.00  0.00     0.151 C 
ATOM      7  C           0     132.388 136.320 134.903  0.00  0.00     0.180 C 
ATOM      8  N           0     131.244 137.097 134.381  0.00  0.00    -0.216 N 
ATOM      9  C           0     131.294 137.036 133.009  0.00  0.00     0.670 C 
ATOM     10  N           0     130.687 137.874 132.216  0.00  0.00    -0.235 N 
ATOM     11  H           0     130.158 138.597 132.589  0.00  0.00     0.174 HD
ATOM     12  H           0     130.764 137.774 131.255  0.00  0.00     0.174 HD
ATOM     13  C           0     132.804 135.447 133.730  0.00  0.00     0.217 C 
ATOM     14  N           0     132.064 135.985 132.577  0.00  0.00    -0.191 N 
ATOM     15  N           0     132.516 134.026 133.920  0.00  0.00    -0.183 N 
ATOM     16  C           0     133.363 133.322 132.940  0.00  0.00     0.150 C 
ATOM     17  C           0     134.692 134.116 132.941  0.00  0.00     0.093 C 
ATOM     18  C           0     134.317 135.527 133.463  0.00  0.00     0.209 C 
ATOM     19  H           0     130.302 134.194 136.207  0.00  0.00     0.178 HD
ATOM     20  H           0     130.579 137.565 134.909  0.00  0.00     0.178 HD
ATOM     21  H           0     132.113 135.655 131.666  0.00  0.00     0.180 HD
ENDROOT
BRANCH   6  22
ATOM     22  C           0     133.185 135.107 136.911  0.00  0.00     0.208 C 
BRANCH  22  23
ATOM     23  O           0     132.779 134.340 138.074  0.00  0.00    -0.302 OA
BRANCH  23  24
ATOM     24  C           0     133.019 134.814 139.311  0.00  0.00     0.358 C 
ATOM     25  N           0     133.524 136.054 139.471  0.00  0.00    -0.346 N 
ATOM     26  H           0     133.714 136.604 138.696  0.00  0.00     0.161 HD
ATOM     27  H           0     133.698 136.395 140.363  0.00  0.00     0.161 HD
ATOM     28  O           0     132.780 134.125 140.283  0.00  0.00    -0.239 OA
ENDBRANCH  23  24
ENDBRANCH  22  23
ENDBRANCH   6  22
BRANCH  18  29
ATOM     29  O           0     134.602 136.516 132.473  0.00  0.00    -0.362 OA
ATOM     30  H           0     135.410 136.235 132.021  0.00  0.00     0.213 HD
ENDBRANCH  18  29
BRANCH  18  31
ATOM     31  O           0     135.021 135.813 134.673  0.00  0.00    -0.362 OA
ATOM     32  H           0     135.165 136.769 134.692  0.00  0.00     0.213 HD
ENDBRANCH  18  31
TORSDOF 5
ENDMDL
MODEL 7
REMARK VINA RESULT:      -6.6      2.826      4.539
REMARK  5 active torsions:
REMARK  status: ('A' for Active; 'I' for Inactive)
REMARK    1  A    between atoms: C_6  and  C_7 
REMARK    2  A    between atoms: C_7  and  O_8 
REMARK    3  A    between atoms: O_8  and  C_9 
REMARK       I    between atoms: C_9  and  N_10 
REMARK    4  A    between atoms: C_23  and  O_24 
REMARK    5  A    between atoms: C_23  and  O_25 
ROOT
ATOM      1  N           0     134.004 131.629 148.433  0.00  0.00    -0.235 N 
ATOM      2  H           0     133.218 131.100 148.227  0.00  0.00     0.174 HD
ATOM      3  H           0     134.075 132.082 149.288  0.00  0.00     0.174 HD
ATOM      4  C           0     134.969 131.729 147.562  0.00  0.00     0.672 C 
ATOM      5  N           0     134.919 131.100 146.330  0.00  0.00    -0.218 N 
ATOM      6  C           0     135.641 131.703 145.215  0.00  0.00     0.151 C 
ATOM      7  C           0     137.086 132.014 145.554  0.00  0.00     0.180 C 
ATOM      8  N           0     137.873 130.764 145.524  0.00  0.00    -0.216 N 
ATOM      9  C           0     138.762 130.808 146.570  0.00  0.00     0.670 C 
ATOM     10  N           0     139.838 130.076 146.649  0.00  0.00    -0.235 N 
ATOM     11  H           0     140.051 129.450 145.939  0.00  0.00     0.174 HD
ATOM     12  H           0     140.424 130.157 147.417  0.00  0.00     0.174 HD
ATOM     13  C           0     137.293 132.543 146.965  0.00  0.00     0.217 C 
ATOM     14  N           0     138.379 131.719 147.522  0.00  0.00    -0.191 N 
ATOM     15  N           0     136.097 132.470 147.804  0.00  0.00    -0.183 N 
ATOM     16  C           0     136.346 133.401 148.920  0.00  0.00     0.150 C 
ATOM     17  C           0     137.077 134.598 148.264  0.00  0.00     0.093 C 
ATOM     18  C           0     137.706 134.025 146.969  0.00  0.00     0.209 C 
ATOM     19  H           0     134.417 130.278 146.212  0.00  0.00     0.178 HD
ATOM     20  H           0     137.779 130.042 144.883  0.00  0.00     0.178 HD
ATOM     21  H           0     138.760 131.808 148.409  0.00  0.00     0.180 HD
ENDROOT
BRANCH   6  22
ATOM     22  C           0     134.938 133.002 144.816  0.00  0.00     0.208 C 
BRANCH  22  23
ATOM     23  O           0     135.555 133.539 143.617  0.00  0.00    -0.302 OA
BRANCH  23  24
ATOM     24  C           0     135.120 134.703 143.099  0.00  0.00     0.358 C 
ATOM     25  N           0     135.750 135.854 143.406  0.00  0.00    -0.346 N 
ATOM     26  H           0     136.517 135.844 144.000  0.00  0.00     0.161 HD
ATOM     27  H           0     135.436 136.694 143.034  0.00  0.00     0.161 HD
ATOM     28  O           0     134.159 134.716 142.355  0.00  0.00    -0.239 OA
ENDBRANCH  23  24
ENDBRANCH  22  23
ENDBRANCH   6  22
BRANCH  18  29
ATOM     29  O           0     139.128 134.151 147.009  0.00  0.00    -0.362 OA
ATOM     30  H           0     139.324 135.097 147.048  0.00  0.00     0.213 HD
ENDBRANCH  18  29
BRANCH  18  31
ATOM     31  O           0     137.177 134.691 145.821  0.00  0.00    -0.362 OA
ATOM     32  H           0     137.662 135.523 145.733  0.00  0.00     0.213 HD
ENDBRANCH  18  31
TORSDOF 5
ENDMDL
MODEL 8
REMARK VINA RESULT:      -6.5      2.135      2.923
REMARK  5 active torsions:
REMARK  status: ('A' for Active; 'I' for Inactive)
REMARK    1  A    between atoms: C_6  and  C_7 
REMARK    2  A    between atoms: C_7  and  O_8 
REMARK    3  A    between atoms: O_8  and  C_9 
REMARK       I    between atoms: C_9  and  N_10 
REMARK    4  A    between atoms: C_23  and  O_24 
REMARK    5  A    between atoms: C_23  and  O_25 
ROOT
ATOM      1  N           0     136.148 135.410 143.381  0.00  0.00    -0.235 N 
ATOM      2  H           0     135.357 135.682 142.890  0.00  0.00     0.174 HD
ATOM      3  H           0     136.990 135.869 143.235  0.00  0.00     0.174 HD
ATOM      4  C           0     136.079 134.431 144.239  0.00  0.00     0.672 C 
ATOM      5  N           0     134.901 133.748 144.485  0.00  0.00    -0.218 N 
ATOM      6  C           0     134.985 132.357 144.920  0.00  0.00     0.151 C 
ATOM      7  C           0     135.923 132.169 146.097  0.00  0.00     0.180 C 
ATOM      8  N           0     135.251 132.625 147.332  0.00  0.00    -0.216 N 
ATOM      9  C           0     136.187 133.278 148.096  0.00  0.00     0.670 C 
ATOM     10  N           0     136.067 133.493 149.376  0.00  0.00    -0.235 N 
ATOM     11  H           0     135.278 133.184 149.847  0.00  0.00     0.174 HD
ATOM     12  H           0     136.768 133.962 149.856  0.00  0.00     0.174 HD
ATOM     13  C           0     137.181 133.019 146.030  0.00  0.00     0.217 C 
ATOM     14  N           0     137.265 133.676 147.345  0.00  0.00    -0.191 N 
ATOM     15  N           0     137.171 134.007 144.951  0.00  0.00    -0.183 N 
ATOM     16  C           0     138.580 134.395 144.763  0.00  0.00     0.150 C 
ATOM     17  C           0     139.369 133.076 144.948  0.00  0.00     0.093 C 
ATOM     18  C           0     138.439 132.166 145.791  0.00  0.00     0.209 C 
ATOM     19  H           0     134.041 134.183 144.373  0.00  0.00     0.178 HD
ATOM     20  H           0     134.319 132.487 147.562  0.00  0.00     0.178 HD
ATOM     21  H           0     137.964 134.283 147.633  0.00  0.00     0.180 HD
ENDROOT
BRANCH   6  22
ATOM     22  C           0     135.481 131.504 143.752  0.00  0.00     0.208 C 
BRANCH  22  23
ATOM     23  O           0     134.379 131.230 142.849  0.00  0.00    -0.302 OA
BRANCH  23  24
ATOM     24  C           0     133.951 132.183 141.999  0.00  0.00     0.358 C 
ATOM     25  N           0     132.637 132.296 141.720  0.00  0.00    -0.346 N 
ATOM     26  H           0     131.999 131.691 142.132  0.00  0.00     0.161 HD
ATOM     27  H           0     132.328 132.982 141.108  0.00  0.00     0.161 HD
ATOM     28  O           0     134.749 132.941 141.485  0.00  0.00    -0.239 OA
ENDBRANCH  23  24
ENDBRANCH  22  23
ENDBRANCH   6  22
BRANCH  18  29
ATOM     29  O           0     139.063 131.830 147.031  0.00  0.00    -0.362 OA
ATOM     30  H           0     139.385 130.922 146.946  0.00  0.00     0.213 HD
ENDBRANCH  18  29
BRANCH  18  31
ATOM     31  O           0     138.106 130.983 145.062  0.00  0.00    -0.362 OA
ATOM     32  H           0     138.048 130.264 145.708  0.00  0.00     0.213 HD
ENDBRANCH  18  31
TORSDOF 5
ENDMDL
MODEL 9
REMARK VINA RESULT:      -6.4      8.121     10.473
REMARK  5 active torsions:
REMARK  status: ('A' for Active; 'I' for Inactive)
REMARK    1  A    between atoms: C_6  and  C_7 
REMARK    2  A    between atoms: C_7  and  O_8 
REMARK    3  A    between atoms: O_8  and  C_9 
REMARK       I    between atoms: C_9  and  N_10 
REMARK    4  A    between atoms: C_23  and  O_24 
REMARK    5  A    between atoms: C_23  and  O_25 
ROOT
ATOM      1  N           0     128.779 134.500 132.148  0.00  0.00    -0.235 N 
ATOM      2  H           0     128.033 134.145 131.641  0.00  0.00     0.174 HD
ATOM      3  H           0     128.976 135.451 132.120  0.00  0.00     0.174 HD
ATOM      4  C           0     129.517 133.704 132.869  0.00  0.00     0.672 C 
ATOM      5  N           0     129.275 132.343 132.944  0.00  0.00    -0.218 N 
ATOM      6  C           0     130.403 131.453 133.206  0.00  0.00     0.151 C 
ATOM      7  C           0     131.216 131.881 134.412  0.00  0.00     0.180 C 
ATOM      8  N           0     130.495 131.500 135.644  0.00  0.00    -0.216 N 
ATOM      9  C           0     130.650 132.522 136.549  0.00  0.00     0.670 C 
ATOM     10  N           0     130.473 132.398 137.834  0.00  0.00    -0.235 N 
ATOM     11  H           0     130.214 131.540 138.206  0.00  0.00     0.174 HD
ATOM     12  H           0     130.600 133.162 138.417  0.00  0.00     0.174 HD
ATOM     13  C           0     131.393 133.385 134.541  0.00  0.00     0.217 C 
ATOM     14  N           0     131.017 133.693 135.931  0.00  0.00    -0.191 N 
ATOM     15  N           0     130.585 134.158 133.597  0.00  0.00    -0.183 N 
ATOM     16  C           0     131.204 135.496 133.559  0.00  0.00     0.150 C 
ATOM     17  C           0     132.725 135.217 133.631  0.00  0.00     0.093 C 
ATOM     18  C           0     132.847 133.817 134.286  0.00  0.00     0.209 C 
ATOM     19  H           0     128.380 131.990 132.827  0.00  0.00     0.178 HD
ATOM     20  H           0     130.001 130.678 135.790  0.00  0.00     0.178 HD
ATOM     21  H           0     131.028 134.571 136.341  0.00  0.00     0.180 HD
ENDROOT
BRANCH   6  22
ATOM     22  C           0     131.314 131.437 131.977  0.00  0.00     0.208 C 
BRANCH  22  23
ATOM     23  O           0     132.368 130.458 132.168  0.00  0.00    -0.302 OA
BRANCH  23  24
ATOM     24  C           0     132.063 129.149 132.257  0.00  0.00     0.358 C 
ATOM     25  N           0     132.189 128.507 133.435  0.00  0.00    -0.346 N 
ATOM     26  H           0     132.499 128.987 134.219  0.00  0.00     0.161 HD
ATOM     27  H           0     131.970 127.564 133.500  0.00  0.00     0.161 HD
ATOM     28  O           0     131.674 128.548 131.276  0.00  0.00    -0.239 OA
ENDBRANCH  23  24
ENDBRANCH  22  23
ENDBRANCH   6  22
BRANCH  18  29
ATOM     29  O           0     133.570 133.904 135.515  0.00  0.00    -0.362 OA
ATOM     30  H           0     133.033 133.461 136.187  0.00  0.00     0.213 HD
ENDBRANCH  18  29
BRANCH  18  31
ATOM     31  O           0     133.487 132.904 133.393  0.00  0.00    -0.362 OA
ATOM     32  H           0     133.358 133.251 132.499  0.00  0.00     0.213 HD
ENDBRANCH  18  31
TORSDOF 5
ENDMDL
