# created with PyMOL 2.3.4
@<TRIPOS>MOLECULE
ligand_out_0001
32 34 1                 
SMALL
USER_CHARGES
@<TRIPOS>ATOM
1	   N	135.096	136.808	143.198	N.3	1	UNK0	-0.235	
2	   N	133.870	134.808	143.018	N.3	1	UNK0	-0.218	
3	   N	134.150	132.203	144.638	N.3	1	UNK0	-0.216	
4	   N	134.852	131.676	146.835	N.3	1	UNK0	-0.235	
5	   N	136.121	133.048	145.387	N.3	1	UNK0	-0.191	
6	   N	136.108	134.749	143.668	N.3	1	UNK0	-0.183	
7	   N	133.509	136.074	139.855	N.pl3	1	UNK0	-0.346	
8	   C	135.031	135.509	143.294	C.3	1	UNK0	0.672	
9	   C	133.989	133.435	142.537	C.3	1	UNK0	0.151	
10	   C	134.886	132.584	143.414	C.3	1	UNK0	0.180	
11	   C	135.030	132.272	145.690	C.3	1	UNK0	0.670	
12	   C	136.114	133.312	143.938	C.3	1	UNK0	0.217	
13	   C	137.509	135.182	143.826	C.3	1	UNK0	0.150	
14	   C	138.338	134.020	143.226	C.3	1	UNK0	0.093	
15	   C	137.411	132.781	143.304	C.3	1	UNK0	0.209	
16	   C	134.563	133.457	141.119	C.2	1	UNK0	0.208	
17	   C	133.619	134.827	139.356	C.2	1	UNK0	0.358	
18	   O	133.505	133.762	140.173	O.2	1	UNK0	-0.302	
19	   O	133.820	134.663	138.169	O.co2	1	UNK0	-0.239	
20	   O	137.998	131.772	144.127	O.2	1	UNK0	-0.362	
21	   O	137.151	132.270	141.995	O.2	1	UNK0	-0.362	
22	   H	134.316	137.315	142.927	 H	1	UNK0	0.174	
23	   H	135.926	137.267	143.402	 H	1	UNK0	0.174	
24	   H	134.056	131.141	146.984	 H	1	UNK0	0.174	
25	   H	135.515	131.766	147.537	 H	1	UNK0	0.174	
26	   H	133.000	135.218	143.142	 H	1	UNK0	0.178	
27	   H	133.215	131.949	144.689	 H	1	UNK0	0.178	
28	   H	136.785	133.365	146.018	 H	1	UNK0	0.180	
29	   H	133.349	136.205	140.803	 H	1	UNK0	0.161	
30	   H	133.591	136.841	139.267	 H	1	UNK0	0.161	
31	   H	138.940	131.747	143.911	 H	1	UNK0	0.213	
32	   H	137.854	132.602	141.420	 H	1	UNK0	0.213	
@<TRIPOS>BOND
1 1 8 1
2 1 22 1
3 1 23 1
4 2 9 1
5 2 26 1
6 3 11 1
7 3 27 1
8 4 24 1
9 4 25 1
10 5 28 1
11 6 13 1
12 7 29 1
13 7 30 1
14 2 8 1
15 6 8 1
16 9 10 1
17 9 16 1
18 3 10 1
19 10 12 1
20 4 11 1
21 5 11 1
22 5 12 1
23 6 12 1
24 12 15 1
25 13 14 1
26 14 15 1
27 15 20 2
28 15 21 2
29 16 18 2
30 7 17 1
31 17 19 2
32 17 18 2
33 20 31 1
34 21 32 1
@<TRIPOS>SUBSTRUCTURE
1	UNK0	1	GROUP	1 ****	UNK
