# created with PyMOL 2.3.4
@<TRIPOS>MOLECULE
ligand_out_0001
32 35 1                 
SMALL
USER_CHARGES
@<TRIPOS>ATOM
1	   N	130.592	131.495	135.945	N.3	1	UNK0	-0.235	
2	   N	132.559	130.638	136.901	N.pl3	1	UNK0	-0.200	
3	   N	131.015	131.829	138.235	N.3	1	UNK0	-0.211	
4	   C	131.358	131.326	136.985	C.3	1	UNK0	0.670	
5	   C	133.719	131.189	137.623	C.2	1	UNK0	0.244	
6	   C	133.291	131.498	139.060	C.3	1	UNK0	0.101	
7	   C	132.080	132.437	139.024	C.3	1	UNK0	0.119	
8	   C	132.525	133.756	138.377	C.2	1	UNK0	0.243	
9	   C	134.429	132.177	139.821	C.2	1	UNK0	0.177	
10	   C	133.662	134.306	139.245	C.3	1	UNK0	0.311	
11	   C	133.970	132.432	141.264	C.3	1	UNK0	0.134	
12	   C	132.774	133.401	141.203	C.2	1	UNK0	0.198	
13	   C	131.626	132.737	140.452	C.2	1	UNK0	0.182	
14	   C	135.114	133.052	142.070	C.2	1	UNK0	0.207	
15	   O	134.772	133.423	139.224	O.2	1	UNK0	-0.322	
16	   O	133.187	134.595	140.547	O.2	1	UNK0	-0.319	
17	   O	133.563	131.202	141.867	O.2	1	UNK0	-0.382	
18	   O	134.594	134.072	142.925	O.2	1	UNK0	-0.398	
19	   O	130.500	133.616	140.423	O.2	1	UNK0	-0.390	
20	   O	134.780	130.230	137.631	O.2	1	UNK0	-0.376	
21	   O	134.084	135.546	138.674	O.2	1	UNK0	-0.341	
22	   O	132.992	133.517	137.048	O.2	1	UNK0	-0.385	
23	   H	130.858	131.137	135.083	 H	1	UNK0	0.174	
24	   H	129.755	131.978	136.032	 H	1	UNK0	0.174	
25	   H	132.632	129.821	136.386	 H	1	UNK0	0.180	
26	   H	130.106	131.773	138.567	 H	1	UNK0	0.178	
27	   H	134.323	130.606	141.828	 H	1	UNK0	0.210	
28	   H	134.926	133.887	143.814	 H	1	UNK0	0.209	
29	   H	130.008	133.412	139.616	 H	1	UNK0	0.210	
30	   H	134.796	129.839	138.517	 H	1	UNK0	0.212	
31	   H	134.132	136.185	139.397	 H	1	UNK0	0.215	
32	   H	132.353	133.924	136.448	 H	1	UNK0	0.210	
@<TRIPOS>BOND
1 1 4 1
2 1 23 1
3 1 24 1
4 2 5 1
5 2 25 1
6 3 26 1
7 2 4 1
8 3 4 1
9 5 6 1
10 5 20 2
11 6 7 1
12 6 9 1
13 3 7 1
14 7 8 1
15 7 13 1
16 8 10 1
17 8 22 2
18 9 11 1
19 9 15 2
20 10 16 2
21 10 21 2
22 11 12 1
23 11 14 1
24 11 17 2
25 12 13 1
26 13 19 2
27 14 18 2
28 10 15 2
29 12 16 2
30 17 27 1
31 18 28 1
32 19 29 1
33 20 30 1
34 21 31 1
35 22 32 1
@<TRIPOS>SUBSTRUCTURE
1	UNK0	1	GROUP	1 ****	UNK
