MODEL 1
REMARK VINA RESULT:      -8.8      0.000      0.000
REMARK  7 active torsions:
REMARK  status: ('A' for Active; 'I' for Inactive)
REMARK    1  A    between atoms: C_6  and  O_7 
REMARK    2  A    between atoms: C_10  and  O_11 
REMARK    3  A    between atoms: C_15  and  O_16 
REMARK    4  A    between atoms: C_18  and  O_19 
REMARK    5  A    between atoms: C_18  and  C_20 
REMARK    6  A    between atoms: C_20  and  O_21 
REMARK    7  A    between atoms: C_23  and  O_24 
ROOT
ATOM      1  N           0     130.592 131.495 135.945  0.00  0.00    -0.235 N 
ATOM      2  H           0     130.858 131.137 135.083  0.00  0.00     0.174 HD
ATOM      3  H           0     129.755 131.978 136.032  0.00  0.00     0.174 HD
ATOM      4  C           0     131.358 131.326 136.985  0.00  0.00     0.670 C 
ATOM      5  N           0     132.559 130.638 136.901  0.00  0.00    -0.200 N 
ATOM      6  C           0     133.719 131.189 137.623  0.00  0.00     0.244 C 
ATOM      7  C           0     133.291 131.498 139.060  0.00  0.00     0.101 C 
ATOM      8  C           0     132.080 132.437 139.024  0.00  0.00     0.119 C 
ATOM      9  C           0     132.525 133.756 138.377  0.00  0.00     0.243 C 
ATOM     10  N           0     131.015 131.829 138.235  0.00  0.00    -0.211 N 
ATOM     11  C           0     134.429 132.177 139.821  0.00  0.00     0.177 C 
ATOM     12  O           0     134.772 133.423 139.224  0.00  0.00    -0.322 OA
ATOM     13  C           0     133.662 134.306 139.245  0.00  0.00     0.311 C 
ATOM     14  O           0     133.187 134.595 140.547  0.00  0.00    -0.319 OA
ATOM     15  C           0     133.970 132.432 141.264  0.00  0.00     0.134 C 
ATOM     16  C           0     132.774 133.401 141.203  0.00  0.00     0.198 C 
ATOM     17  C           0     131.626 132.737 140.452  0.00  0.00     0.182 C 
ATOM     18  H           0     132.632 129.821 136.386  0.00  0.00     0.180 HD
ATOM     19  H           0     130.106 131.773 138.567  0.00  0.00     0.178 HD
ENDROOT
BRANCH  15  20
ATOM     20  O           0     133.563 131.202 141.867  0.00  0.00    -0.382 OA
ATOM     21  H           0     134.323 130.606 141.828  0.00  0.00     0.210 HD
ENDBRANCH  15  20
BRANCH  15  22
ATOM     22  C           0     135.114 133.052 142.070  0.00  0.00     0.207 C 
BRANCH  22  23
ATOM     23  O           0     134.594 134.072 142.925  0.00  0.00    -0.398 OA
ATOM     24  H           0     134.926 133.887 143.814  0.00  0.00     0.209 HD
ENDBRANCH  22  23
ENDBRANCH  15  22
BRANCH  17  25
ATOM     25  O           0     130.500 133.616 140.423  0.00  0.00    -0.390 OA
ATOM     26  H           0     130.008 133.412 139.616  0.00  0.00     0.210 HD
ENDBRANCH  17  25
BRANCH   6  27
ATOM     27  O           0     134.780 130.230 137.631  0.00  0.00    -0.376 OA
ATOM     28  H           0     134.796 129.839 138.517  0.00  0.00     0.212 HD
ENDBRANCH   6  27
BRANCH  13  29
ATOM     29  O           0     134.084 135.546 138.674  0.00  0.00    -0.341 OA
ATOM     30  H           0     134.132 136.185 139.397  0.00  0.00     0.215 HD
ENDBRANCH  13  29
BRANCH   9  31
ATOM     31  O           0     132.992 133.517 137.048  0.00  0.00    -0.385 OA
ATOM     32  H           0     132.353 133.924 136.448  0.00  0.00     0.210 HD
ENDBRANCH   9  31
TORSDOF 7
ENDMDL
MODEL 2
REMARK VINA RESULT:      -8.6      2.151      4.703
REMARK  7 active torsions:
REMARK  status: ('A' for Active; 'I' for Inactive)
REMARK    1  A    between atoms: C_6  and  O_7 
REMARK    2  A    between atoms: C_10  and  O_11 
REMARK    3  A    between atoms: C_15  and  O_16 
REMARK    4  A    between atoms: C_18  and  O_19 
REMARK    5  A    between atoms: C_18  and  C_20 
REMARK    6  A    between atoms: C_20  and  O_21 
REMARK    7  A    between atoms: C_23  and  O_24 
ROOT
ATOM      1  N           0     134.313 131.651 142.859  0.00  0.00    -0.235 N 
ATOM      2  H           0     134.001 132.085 143.668  0.00  0.00     0.174 HD
ATOM      3  H           0     135.166 131.189 142.854  0.00  0.00     0.174 HD
ATOM      4  C           0     133.583 131.683 141.780  0.00  0.00     0.670 C 
ATOM      5  N           0     132.357 132.327 141.750  0.00  0.00    -0.200 N 
ATOM      6  C           0     132.032 133.134 140.561  0.00  0.00     0.244 C 
ATOM      7  C           0     132.309 132.289 139.314  0.00  0.00     0.101 C 
ATOM      8  C           0     133.764 131.805 139.358  0.00  0.00     0.119 C 
ATOM      9  C           0     134.674 133.040 139.295  0.00  0.00     0.243 C 
ATOM     10  N           0     133.998 131.077 140.599  0.00  0.00    -0.211 N 
ATOM     11  C           0     132.096 133.119 138.049  0.00  0.00     0.177 C 
ATOM     12  O           0     132.997 134.220 138.001  0.00  0.00    -0.322 OA
ATOM     13  C           0     134.339 133.762 137.985  0.00  0.00     0.311 C 
ATOM     14  O           0     134.648 132.934 136.878  0.00  0.00    -0.319 OA
ATOM     15  C           0     132.345 132.223 136.827  0.00  0.00     0.134 C 
ATOM     16  C           0     133.819 131.776 136.877  0.00  0.00     0.198 C 
ATOM     17  C           0     134.049 130.941 138.131  0.00  0.00     0.182 C 
ATOM     18  H           0     131.732 132.248 142.487  0.00  0.00     0.180 HD
ATOM     19  H           0     134.420 130.204 140.603  0.00  0.00     0.178 HD
ENDROOT
BRANCH  15  20
ATOM     20  O           0     131.493 131.078 136.884  0.00  0.00    -0.382 OA
ATOM     21  H           0     131.981 130.346 136.483  0.00  0.00     0.210 HD
ENDBRANCH  15  20
BRANCH  15  22
ATOM     22  C           0     132.074 133.010 135.543  0.00  0.00     0.207 C 
BRANCH  22  23
ATOM     23  O           0     131.160 134.073 135.821  0.00  0.00    -0.398 OA
ATOM     24  H           0     131.195 134.676 135.066  0.00  0.00     0.209 HD
ENDBRANCH  22  23
ENDBRANCH  15  22
BRANCH  17  25
ATOM     25  O           0     135.405 130.492 138.166  0.00  0.00    -0.390 OA
ATOM     26  H           0     135.856 131.020 138.839  0.00  0.00     0.210 HD
ENDBRANCH  17  25
BRANCH   6  27
ATOM     27  O           0     130.652 133.506 140.593  0.00  0.00    -0.376 OA
ATOM     28  H           0     130.207 132.989 139.907  0.00  0.00     0.212 HD
ENDBRANCH   6  27
BRANCH  13  29
ATOM     29  O           0     135.187 134.909 137.893  0.00  0.00    -0.341 OA
ATOM     30  H           0     135.137 135.220 136.979  0.00  0.00     0.215 HD
ENDBRANCH  13  29
BRANCH   9  31
ATOM     31  O           0     134.414 133.898 140.409  0.00  0.00    -0.385 OA
ATOM     32  H           0     135.252 134.012 140.876  0.00  0.00     0.210 HD
ENDBRANCH   9  31
TORSDOF 7
ENDMDL
MODEL 3
REMARK VINA RESULT:      -8.2      1.930      3.624
REMARK  7 active torsions:
REMARK  status: ('A' for Active; 'I' for Inactive)
REMARK    1  A    between atoms: C_6  and  O_7 
REMARK    2  A    between atoms: C_10  and  O_11 
REMARK    3  A    between atoms: C_15  and  O_16 
REMARK    4  A    between atoms: C_18  and  O_19 
REMARK    5  A    between atoms: C_18  and  C_20 
REMARK    6  A    between atoms: C_20  and  O_21 
REMARK    7  A    between atoms: C_23  and  O_24 
ROOT
ATOM      1  N           0     131.351 132.406 133.224  0.00  0.00    -0.235 N 
ATOM      2  H           0     130.636 131.870 132.847  0.00  0.00     0.174 HD
ATOM      3  H           0     132.073 132.720 132.657  0.00  0.00     0.174 HD
ATOM      4  C           0     131.340 132.708 134.492  0.00  0.00     0.670 C 
ATOM      5  N           0     130.324 132.282 135.333  0.00  0.00    -0.200 N 
ATOM      6  C           0     130.697 131.794 136.672  0.00  0.00     0.244 C 
ATOM      7  C           0     131.633 132.821 137.316  0.00  0.00     0.101 C 
ATOM      8  C           0     132.829 133.053 136.383  0.00  0.00     0.119 C 
ATOM      9  C           0     133.599 131.730 136.266  0.00  0.00     0.243 C 
ATOM     10  N           0     132.350 133.468 135.070  0.00  0.00    -0.211 N 
ATOM     11  C           0     132.140 132.308 138.663  0.00  0.00     0.177 C 
ATOM     12  O           0     132.898 131.114 138.504  0.00  0.00    -0.322 OA
ATOM     13  C           0     134.033 131.350 137.687  0.00  0.00     0.311 C 
ATOM     14  O           0     134.917 132.327 138.205  0.00  0.00    -0.319 OA
ATOM     15  C           0     133.041 133.384 139.288  0.00  0.00     0.134 C 
ATOM     16  C           0     134.248 133.576 138.351  0.00  0.00     0.198 C 
ATOM     17  C           0     133.761 134.093 137.002  0.00  0.00     0.182 C 
ATOM     18  H           0     129.397 132.306 135.049  0.00  0.00     0.180 HD
ATOM     19  H           0     132.715 134.245 134.620  0.00  0.00     0.178 HD
ENDROOT
BRANCH  15  20
ATOM     20  O           0     132.321 134.612 139.403  0.00  0.00    -0.382 OA
ATOM     21  H           0     131.386 134.382 139.491  0.00  0.00     0.210 HD
ENDBRANCH  15  20
BRANCH  15  22
ATOM     22  C           0     133.511 132.926 140.670  0.00  0.00     0.207 C 
BRANCH  22  23
ATOM     23  O           0     134.831 133.418 140.910  0.00  0.00    -0.398 OA
ATOM     24  H           0     134.737 134.320 141.245  0.00  0.00     0.209 HD
ENDBRANCH  22  23
ENDBRANCH  15  22
BRANCH  17  25
ATOM     25  O           0     134.879 134.308 136.139  0.00  0.00    -0.390 OA
ATOM     26  H           0     134.563 134.851 135.403  0.00  0.00     0.210 HD
ENDBRANCH  17  25
BRANCH   6  27
ATOM     27  O           0     129.523 131.643 137.474  0.00  0.00    -0.376 OA
ATOM     28  H           0     128.765 131.776 136.887  0.00  0.00     0.212 HD
ENDBRANCH   6  27
BRANCH  13  29
ATOM     29  O           0     134.769 130.128 137.603  0.00  0.00    -0.341 OA
ATOM     30  H           0     135.419 130.145 138.318  0.00  0.00     0.215 HD
ENDBRANCH  13  29
BRANCH   9  31
ATOM     31  O           0     132.750 130.716 135.723  0.00  0.00    -0.385 OA
ATOM     32  H           0     131.841 131.029 135.823  0.00  0.00     0.210 HD
ENDBRANCH   9  31
TORSDOF 7
ENDMDL
MODEL 4
REMARK VINA RESULT:      -8.1      1.699      2.978
REMARK  7 active torsions:
REMARK  status: ('A' for Active; 'I' for Inactive)
REMARK    1  A    between atoms: C_6  and  O_7 
REMARK    2  A    between atoms: C_10  and  O_11 
REMARK    3  A    between atoms: C_15  and  O_16 
REMARK    4  A    between atoms: C_18  and  O_19 
REMARK    5  A    between atoms: C_18  and  C_20 
REMARK    6  A    between atoms: C_20  and  O_21 
REMARK    7  A    between atoms: C_23  and  O_24 
ROOT
ATOM      1  N           0     133.545 131.796 135.371  0.00  0.00    -0.235 N 
ATOM      2  H           0     133.398 132.319 134.567  0.00  0.00     0.174 HD
ATOM      3  H           0     133.340 130.848 135.377  0.00  0.00     0.174 HD
ATOM      4  C           0     134.020 132.368 136.442  0.00  0.00     0.670 C 
ATOM      5  N           0     134.328 133.719 136.470  0.00  0.00    -0.200 N 
ATOM      6  C           0     133.954 134.486 137.671  0.00  0.00     0.244 C 
ATOM      7  C           0     134.445 133.721 138.904  0.00  0.00     0.101 C 
ATOM      8  C           0     133.866 132.301 138.867  0.00  0.00     0.119 C 
ATOM      9  C           0     132.338 132.412 138.966  0.00  0.00     0.243 C 
ATOM     10  N           0     134.238 131.654 137.615  0.00  0.00    -0.211 N 
ATOM     11  C           0     133.983 134.417 140.183  0.00  0.00     0.177 C 
ATOM     12  O           0     132.562 134.448 140.264  0.00  0.00    -0.322 OA
ATOM     13  C           0     132.038 133.130 140.287  0.00  0.00     0.311 C 
ATOM     14  O           0     132.492 132.353 141.380  0.00  0.00    -0.319 OA
ATOM     15  C           0     134.530 133.640 141.389  0.00  0.00     0.134 C 
ATOM     16  C           0     133.910 132.230 141.348  0.00  0.00     0.198 C 
ATOM     17  C           0     134.366 131.517 140.080  0.00  0.00     0.182 C 
ATOM     18  H           0     134.777 134.145 135.724  0.00  0.00     0.180 HD
ATOM     19  H           0     134.626 130.766 137.598  0.00  0.00     0.178 HD
ENDROOT
BRANCH  15  20
ATOM     20  O           0     135.952 133.543 141.299  0.00  0.00    -0.382 OA
ATOM     21  H           0     136.252 134.302 140.780  0.00  0.00     0.210 HD
ENDBRANCH  15  20
BRANCH  15  22
ATOM     22  C           0     134.138 134.353 142.685  0.00  0.00     0.207 C 
BRANCH  22  23
ATOM     23  O           0     134.246 135.765 142.502  0.00  0.00    -0.398 OA
ATOM     24  H           0     134.383 136.151 143.378  0.00  0.00     0.209 HD
ENDBRANCH  22  23
ENDBRANCH  15  22
BRANCH  17  25
ATOM     25  O           0     133.824 130.195 140.053  0.00  0.00    -0.390 OA
ATOM     26  H           0     133.230 130.121 140.813  0.00  0.00     0.210 HD
ENDBRANCH  17  25
BRANCH   6  27
ATOM     27  O           0     134.568 135.776 137.629  0.00  0.00    -0.376 OA
ATOM     28  H           0     135.477 135.663 137.942  0.00  0.00     0.212 HD
ENDBRANCH   6  27
BRANCH  13  29
ATOM     29  O           0     130.618 133.231 140.413  0.00  0.00    -0.341 OA
ATOM     30  H           0     130.247 133.053 139.539  0.00  0.00     0.215 HD
ENDBRANCH  13  29
BRANCH   9  31
ATOM     31  O           0     131.830 133.171 137.867  0.00  0.00    -0.385 OA
ATOM     32  H           0     131.382 133.941 138.242  0.00  0.00     0.210 HD
ENDBRANCH   9  31
TORSDOF 7
ENDMDL
MODEL 5
REMARK VINA RESULT:      -7.9      2.319      5.092
REMARK  7 active torsions:
REMARK  status: ('A' for Active; 'I' for Inactive)
REMARK    1  A    between atoms: C_6  and  O_7 
REMARK    2  A    between atoms: C_10  and  O_11 
REMARK    3  A    between atoms: C_15  and  O_16 
REMARK    4  A    between atoms: C_18  and  O_19 
REMARK    5  A    between atoms: C_18  and  C_20 
REMARK    6  A    between atoms: C_20  and  O_21 
REMARK    7  A    between atoms: C_23  and  O_24 
ROOT
ATOM      1  N           0     132.240 132.812 141.554  0.00  0.00    -0.235 N 
ATOM      2  H           0     132.848 133.185 142.211  0.00  0.00     0.174 HD
ATOM      3  H           0     131.628 132.103 141.806  0.00  0.00     0.174 HD
ATOM      4  C           0     132.242 133.267 140.332  0.00  0.00     0.670 C 
ATOM      5  N           0     133.098 134.282 139.935  0.00  0.00    -0.200 N 
ATOM      6  C           0     133.755 134.154 138.623  0.00  0.00     0.244 C 
ATOM      7  C           0     132.687 133.812 137.580  0.00  0.00     0.101 C 
ATOM      8  C           0     131.945 132.547 138.029  0.00  0.00     0.119 C 
ATOM      9  C           0     132.956 131.392 138.056  0.00  0.00     0.243 C 
ATOM     10  N           0     131.389 132.755 139.361  0.00  0.00    -0.211 N 
ATOM     11  C           0     133.333 133.557 136.219  0.00  0.00     0.177 C 
ATOM     12  O           0     134.218 132.443 136.273  0.00  0.00    -0.322 OA
ATOM     13  C           0     133.513 131.267 136.634  0.00  0.00     0.311 C 
ATOM     14  O           0     132.478 130.921 135.732  0.00  0.00    -0.319 OA
ATOM     15  C           0     132.225 133.258 135.199  0.00  0.00     0.134 C 
ATOM     16  C           0     131.516 131.968 135.654  0.00  0.00     0.198 C 
ATOM     17  C           0     130.859 132.206 137.009  0.00  0.00     0.182 C 
ATOM     18  H           0     133.257 135.052 140.502  0.00  0.00     0.180 HD
ATOM     19  H           0     130.463 132.549 139.562  0.00  0.00     0.178 HD
ENDROOT
BRANCH  15  20
ATOM     20  O           0     131.289 134.337 135.170  0.00  0.00    -0.382 OA
ATOM     21  H           0     131.776 135.137 135.407  0.00  0.00     0.210 HD
ENDBRANCH  15  20
BRANCH  15  22
ATOM     22  C           0     132.837 133.063 133.810  0.00  0.00     0.207 C 
BRANCH  22  23
ATOM     23  O           0     134.096 133.736 133.747  0.00  0.00    -0.398 OA
ATOM     24  H           0     134.297 133.864 132.810  0.00  0.00     0.209 HD
ENDBRANCH  22  23
ENDBRANCH  15  22
BRANCH  17  25
ATOM     25  O           0     130.169 131.025 137.421  0.00  0.00    -0.390 OA
ATOM     26  H           0     129.542 131.293 138.107  0.00  0.00     0.210 HD
ENDBRANCH  17  25
BRANCH   6  27
ATOM     27  O           0     134.386 135.390 138.278  0.00  0.00    -0.376 OA
ATOM     28  H           0     134.119 135.596 137.371  0.00  0.00     0.212 HD
ENDBRANCH   6  27
BRANCH  13  29
ATOM     29  O           0     134.446 130.184 136.628  0.00  0.00    -0.341 OA
ATOM     30  H           0     134.244 129.646 135.850  0.00  0.00     0.215 HD
ENDBRANCH  13  29
BRANCH   9  31
ATOM     31  O           0     134.011 131.687 138.974  0.00  0.00    -0.385 OA
ATOM     32  H           0     134.272 132.604 138.816  0.00  0.00     0.210 HD
ENDBRANCH   9  31
TORSDOF 7
ENDMDL
MODEL 6
REMARK VINA RESULT:      -7.7      2.608      4.954
REMARK  7 active torsions:
REMARK  status: ('A' for Active; 'I' for Inactive)
REMARK    1  A    between atoms: C_6  and  O_7 
REMARK    2  A    between atoms: C_10  and  O_11 
REMARK    3  A    between atoms: C_15  and  O_16 
REMARK    4  A    between atoms: C_18  and  O_19 
REMARK    5  A    between atoms: C_18  and  C_20 
REMARK    6  A    between atoms: C_20  and  O_21 
REMARK    7  A    between atoms: C_23  and  O_24 
ROOT
ATOM      1  N           0     134.391 133.961 141.432  0.00  0.00    -0.235 N 
ATOM      2  H           0     134.685 133.422 142.183  0.00  0.00     0.174 HD
ATOM      3  H           0     133.994 134.833 141.586  0.00  0.00     0.174 HD
ATOM      4  C           0     134.532 133.516 140.215  0.00  0.00     0.670 C 
ATOM      5  N           0     135.098 132.278 139.954  0.00  0.00    -0.200 N 
ATOM      6  C           0     134.472 131.439 138.918  0.00  0.00     0.244 C 
ATOM      7  C           0     134.268 132.294 137.664  0.00  0.00     0.101 C 
ATOM      8  C           0     133.447 133.534 138.039  0.00  0.00     0.119 C 
ATOM      9  C           0     132.065 133.060 138.509  0.00  0.00     0.243 C 
ATOM     10  N           0     134.118 134.256 139.114  0.00  0.00    -0.211 N 
ATOM     11  C           0     133.517 131.502 136.594  0.00  0.00     0.177 C 
ATOM     12  O           0     132.220 131.132 137.048  0.00  0.00    -0.322 OA
ATOM     13  C           0     131.448 132.286 137.339  0.00  0.00     0.311 C 
ATOM     14  O           0     131.262 133.145 136.228  0.00  0.00    -0.319 OA
ATOM     15  C           0     133.371 132.382 135.345  0.00  0.00     0.134 C 
ATOM     16  C           0     132.518 133.603 135.739  0.00  0.00     0.198 C 
ATOM     17  C           0     133.255 134.410 136.802  0.00  0.00     0.182 C 
ATOM     18  H           0     135.882 131.974 140.437  0.00  0.00     0.180 HD
ATOM     19  H           0     134.275 135.212 139.062  0.00  0.00     0.178 HD
ENDROOT
BRANCH  15  20
ATOM     20  O           0     134.659 132.817 134.905  0.00  0.00    -0.382 OA
ATOM     21  H           0     134.532 133.668 134.464  0.00  0.00     0.210 HD
ENDBRANCH  15  20
BRANCH  15  22
ATOM     22  C           0     132.681 131.592 134.231  0.00  0.00     0.207 C 
BRANCH  22  23
ATOM     23  O           0     132.703 130.200 134.552  0.00  0.00    -0.398 OA
ATOM     24  H           0     132.081 129.765 133.954  0.00  0.00     0.209 HD
ENDBRANCH  22  23
ENDBRANCH  15  22
BRANCH  17  25
ATOM     25  O           0     132.487 135.564 137.146  0.00  0.00    -0.390 OA
ATOM     26  H           0     132.064 135.871 136.332  0.00  0.00     0.210 HD
ENDBRANCH  17  25
BRANCH   6  27
ATOM     27  O           0     135.324 130.333 138.613  0.00  0.00    -0.376 OA
ATOM     28  H           0     135.694 130.499 137.734  0.00  0.00     0.212 HD
ENDBRANCH   6  27
BRANCH  13  29
ATOM     29  O           0     130.150 131.848 137.745  0.00  0.00    -0.341 OA
ATOM     30  H           0     129.981 132.242 138.611  0.00  0.00     0.215 HD
ENDBRANCH  13  29
BRANCH   9  31
ATOM     31  O           0     132.201 132.206 139.647  0.00  0.00    -0.385 OA
ATOM     32  H           0     132.041 132.753 140.428  0.00  0.00     0.210 HD
ENDBRANCH   9  31
TORSDOF 7
ENDMDL
MODEL 7
REMARK VINA RESULT:      -7.6      2.553      4.009
REMARK  7 active torsions:
REMARK  status: ('A' for Active; 'I' for Inactive)
REMARK    1  A    between atoms: C_6  and  O_7 
REMARK    2  A    between atoms: C_10  and  O_11 
REMARK    3  A    between atoms: C_15  and  O_16 
REMARK    4  A    between atoms: C_18  and  O_19 
REMARK    5  A    between atoms: C_18  and  C_20 
REMARK    6  A    between atoms: C_20  and  O_21 
REMARK    7  A    between atoms: C_23  and  O_24 
ROOT
ATOM      1  N           0     133.034 135.040 133.398  0.00  0.00    -0.235 N 
ATOM      2  H           0     132.995 135.998 133.251  0.00  0.00     0.174 HD
ATOM      3  H           0     132.664 134.433 132.738  0.00  0.00     0.174 HD
ATOM      4  C           0     133.587 134.569 134.480  0.00  0.00     0.670 C 
ATOM      5  N           0     134.130 135.405 135.442  0.00  0.00    -0.200 N 
ATOM      6  C           0     133.881 135.080 136.857  0.00  0.00     0.244 C 
ATOM      7  C           0     134.209 133.600 137.077  0.00  0.00     0.101 C 
ATOM      8  C           0     133.386 132.760 136.092  0.00  0.00     0.119 C 
ATOM      9  C           0     131.902 132.962 136.424  0.00  0.00     0.243 C 
ATOM     10  N           0     133.657 133.203 134.729  0.00  0.00    -0.211 N 
ATOM     11  C           0     133.858 133.182 138.504  0.00  0.00     0.177 C 
ATOM     12  O           0     132.465 133.329 138.754  0.00  0.00    -0.322 OA
ATOM     13  C           0     131.714 132.506 137.876  0.00  0.00     0.311 C 
ATOM     14  O           0     132.006 131.126 137.996  0.00  0.00    -0.319 OA
ATOM     15  C           0     134.240 131.707 138.691  0.00  0.00     0.134 C 
ATOM     16  C           0     133.380 130.882 137.714  0.00  0.00     0.198 C 
ATOM     17  C           0     133.721 131.281 136.283  0.00  0.00     0.182 C 
ATOM     18  H           0     134.659 136.178 135.193  0.00  0.00     0.180 HD
ATOM     19  H           0     133.881 132.574 134.026  0.00  0.00     0.178 HD
ENDROOT
BRANCH  15  20
ATOM     20  O           0     135.623 131.521 138.387  0.00  0.00    -0.382 OA
ATOM     21  H           0     135.675 130.805 137.741  0.00  0.00     0.210 HD
ENDBRANCH  15  20
BRANCH  15  22
ATOM     22  C           0     133.962 131.277 140.133  0.00  0.00     0.207 C 
BRANCH  22  23
ATOM     23  O           0     134.046 132.415 140.992  0.00  0.00    -0.398 OA
ATOM     24  H           0     134.655 133.038 140.572  0.00  0.00     0.209 HD
ENDBRANCH  22  23
ENDBRANCH  15  22
BRANCH  17  25
ATOM     25  O           0     132.953 130.494 135.370  0.00  0.00    -0.390 OA
ATOM     26  H           0     132.751 131.062 134.614  0.00  0.00     0.210 HD
ENDBRANCH  17  25
BRANCH   6  27
ATOM     27  O           0     134.715 135.887 137.692  0.00  0.00    -0.376 OA
ATOM     28  H           0     134.595 136.803 137.404  0.00  0.00     0.212 HD
ENDBRANCH   6  27
BRANCH  13  29
ATOM     29  O           0     130.333 132.667 138.206  0.00  0.00    -0.341 OA
ATOM     30  H           0     130.094 133.574 137.972  0.00  0.00     0.215 HD
ENDBRANCH  13  29
BRANCH   9  31
ATOM     31  O           0     131.553 134.342 136.293  0.00  0.00    -0.385 OA
ATOM     32  H           0     130.980 134.413 135.518  0.00  0.00     0.210 HD
ENDBRANCH   9  31
TORSDOF 7
ENDMDL
MODEL 8
REMARK VINA RESULT:      -7.3      2.388      3.853
REMARK  7 active torsions:
REMARK  status: ('A' for Active; 'I' for Inactive)
REMARK    1  A    between atoms: C_6  and  O_7 
REMARK    2  A    between atoms: C_10  and  O_11 
REMARK    3  A    between atoms: C_15  and  O_16 
REMARK    4  A    between atoms: C_18  and  O_19 
REMARK    5  A    between atoms: C_18  and  C_20 
REMARK    6  A    between atoms: C_20  and  O_21 
REMARK    7  A    between atoms: C_23  and  O_24 
ROOT
ATOM      1  N           0     134.047 132.500 132.921  0.00  0.00    -0.235 N 
ATOM      2  H           0     133.884 133.140 132.210  0.00  0.00     0.174 HD
ATOM      3  H           0     134.002 131.549 132.738  0.00  0.00     0.174 HD
ATOM      4  C           0     134.332 132.920 134.122  0.00  0.00     0.670 C 
ATOM      5  N           0     134.411 134.271 134.421  0.00  0.00    -0.200 N 
ATOM      6  C           0     133.819 134.731 135.688  0.00  0.00     0.244 C 
ATOM      7  C           0     134.325 133.825 136.814  0.00  0.00     0.101 C 
ATOM      8  C           0     133.992 132.369 136.465  0.00  0.00     0.119 C 
ATOM      9  C           0     132.464 132.235 136.412  0.00  0.00     0.243 C 
ATOM     10  N           0     134.567 132.035 135.168  0.00  0.00    -0.211 N 
ATOM     11  C           0     133.651 134.190 138.136  0.00  0.00     0.177 C 
ATOM     12  O           0     132.243 133.996 138.063  0.00  0.00    -0.322 OA
ATOM     13  C           0     131.942 132.636 137.796  0.00  0.00     0.311 C 
ATOM     14  O           0     132.426 131.740 138.779  0.00  0.00    -0.319 OA
ATOM     15  C           0     134.217 133.285 139.241  0.00  0.00     0.134 C 
ATOM     16  C           0     133.843 131.834 138.884  0.00  0.00     0.198 C 
ATOM     17  C           0     134.512 131.450 137.569  0.00  0.00     0.182 C 
ATOM     18  H           0     134.844 134.893 133.816  0.00  0.00     0.180 HD
ATOM     19  H           0     135.096 131.233 135.039  0.00  0.00     0.178 HD
ENDROOT
BRANCH  15  20
ATOM     20  O           0     135.638 133.417 139.294  0.00  0.00    -0.382 OA
ATOM     21  H           0     136.002 132.521 139.298  0.00  0.00     0.210 HD
ENDBRANCH  15  20
BRANCH  15  22
ATOM     22  C           0     133.608 133.672 140.590  0.00  0.00     0.207 C 
BRANCH  22  23
ATOM     23  O           0     133.467 135.093 140.658  0.00  0.00    -0.398 OA
ATOM     24  H           0     132.980 135.363 139.867  0.00  0.00     0.209 HD
ENDBRANCH  22  23
ENDBRANCH  15  22
BRANCH  17  25
ATOM     25  O           0     134.199 130.093 137.251  0.00  0.00    -0.390 OA
ATOM     26  H           0     134.661 129.541 137.897  0.00  0.00     0.210 HD
ENDBRANCH  17  25
BRANCH   6  27
ATOM     27  O           0     134.214 136.082 135.942  0.00  0.00    -0.376 OA
ATOM     28  H           0     133.933 136.289 136.845  0.00  0.00     0.212 HD
ENDBRANCH   6  27
BRANCH  13  29
ATOM     29  O           0     130.519 132.503 137.779  0.00  0.00    -0.341 OA
ATOM     30  H           0     130.328 131.568 137.624  0.00  0.00     0.215 HD
ENDBRANCH  13  29
BRANCH   9  31
ATOM     31  O           0     131.930 133.108 135.413  0.00  0.00    -0.385 OA
ATOM     32  H           0     131.564 133.873 135.876  0.00  0.00     0.210 HD
ENDBRANCH   9  31
TORSDOF 7
ENDMDL
MODEL 9
REMARK VINA RESULT:      -7.1      3.299      5.717
REMARK  7 active torsions:
REMARK  status: ('A' for Active; 'I' for Inactive)
REMARK    1  A    between atoms: C_6  and  O_7 
REMARK    2  A    between atoms: C_10  and  O_11 
REMARK    3  A    between atoms: C_15  and  O_16 
REMARK    4  A    between atoms: C_18  and  O_19 
REMARK    5  A    between atoms: C_18  and  C_20 
REMARK    6  A    between atoms: C_20  and  O_21 
REMARK    7  A    between atoms: C_23  and  O_24 
ROOT
ATOM      1  N           0     133.877 135.716 139.068  0.00  0.00    -0.235 N 
ATOM      2  H           0     133.970 136.680 139.003  0.00  0.00     0.174 HD
ATOM      3  H           0     134.380 135.224 139.735  0.00  0.00     0.174 HD
ATOM      4  C           0     133.075 135.084 138.259  0.00  0.00     0.670 C 
ATOM      5  N           0     132.336 135.753 137.295  0.00  0.00    -0.200 N 
ATOM      6  C           0     132.238 135.143 135.958  0.00  0.00     0.244 C 
ATOM      7  C           0     131.836 133.675 136.125  0.00  0.00     0.101 C 
ATOM      8  C           0     132.851 132.987 137.048  0.00  0.00     0.119 C 
ATOM      9  C           0     134.219 133.020 136.352  0.00  0.00     0.243 C 
ATOM     10  N           0     132.919 133.703 138.316  0.00  0.00    -0.211 N 
ATOM     11  C           0     131.831 132.966 134.771  0.00  0.00     0.177 C 
ATOM     12  O           0     133.129 132.967 134.187  0.00  0.00    -0.322 OA
ATOM     13  C           0     134.048 132.280 135.020  0.00  0.00     0.311 C 
ATOM     14  O           0     133.708 130.926 135.254  0.00  0.00    -0.319 OA
ATOM     15  C           0     131.386 131.512 134.982  0.00  0.00     0.134 C 
ATOM     16  C           0     132.434 130.835 135.885  0.00  0.00     0.198 C 
ATOM     17  C           0     132.450 131.526 137.244  0.00  0.00     0.182 C 
ATOM     18  H           0     131.898 136.594 137.496  0.00  0.00     0.180 HD
ATOM     19  H           0     132.855 133.239 139.165  0.00  0.00     0.178 HD
ENDROOT
BRANCH  15  20
ATOM     20  O           0     130.109 131.483 135.623  0.00  0.00    -0.382 OA
ATOM     21  H           0     129.477 131.147 134.974  0.00  0.00     0.210 HD
ENDBRANCH  15  20
BRANCH  15  22
ATOM     22  C           0     131.306 130.794 133.633  0.00  0.00     0.207 C 
BRANCH  22  23
ATOM     23  O           0     131.791 129.457 133.777  0.00  0.00    -0.398 OA
ATOM     24  H           0     132.358 129.283 133.013  0.00  0.00     0.209 HD
ENDBRANCH  22  23
ENDBRANCH  15  22
BRANCH  17  25
ATOM     25  O           0     133.395 130.880 138.098  0.00  0.00    -0.390 OA
ATOM     26  H           0     133.403 129.945 137.849  0.00  0.00     0.210 HD
ENDBRANCH  17  25
BRANCH   6  27
ATOM     27  O           0     131.247 135.829 135.188  0.00  0.00    -0.376 OA
ATOM     28  H           0     131.292 135.468 134.291  0.00  0.00     0.212 HD
ENDBRANCH   6  27
BRANCH  13  29
ATOM     29  O           0     135.315 132.280 134.359  0.00  0.00    -0.341 OA
ATOM     30  H           0     135.298 133.007 133.722  0.00  0.00     0.215 HD
ENDBRANCH  13  29
BRANCH   9  31
ATOM     31  O           0     134.617 134.372 136.117  0.00  0.00    -0.385 OA
ATOM     32  H           0     134.536 134.839 136.960  0.00  0.00     0.210 HD
ENDBRANCH   9  31
TORSDOF 7
ENDMDL
