# created with PyMOL 2.3.4
@<TRIPOS>MOLECULE
ligand_out_0001
46 49 1                 
SMALL
USER_CHARGES
@<TRIPOS>ATOM
1	   N	137.663	134.924	142.951	N.3	1	UNK0	-0.235	
2	   N	135.351	135.349	143.010	N.3	1	UNK0	-0.218	
3	   N	133.229	134.294	144.980	N.3	1	UNK0	-0.216	
4	   N	133.251	133.624	147.248	N.3	1	UNK0	-0.235	
5	   N	134.808	132.812	145.665	N.3	1	UNK0	-0.191	
6	   N	136.177	133.291	143.729	N.3	1	UNK0	-0.183	
7	   N	131.525	133.265	139.128	N.pl3	1	UNK0	-0.335	
8	   N	130.477	132.750	136.497	N.pl3	1	UNK0	-0.359	
9	   N	132.704	135.252	135.009	N.pl3	1	UNK0	-0.288	
10	   C	136.449	134.534	143.221	C.3	1	UNK0	0.672	
11	   C	134.066	134.717	142.725	C.3	1	UNK0	0.151	
12	   C	133.702	133.647	143.738	C.3	1	UNK0	0.180	
13	   C	133.734	133.580	146.039	C.3	1	UNK0	0.670	
14	   C	134.880	132.799	144.194	C.3	1	UNK0	0.217	
15	   C	137.099	132.149	143.869	C.3	1	UNK0	0.150	
16	   C	136.253	130.920	143.459	C.3	1	UNK0	0.093	
17	   C	134.781	131.354	143.678	C.3	1	UNK0	0.209	
18	   C	134.125	134.079	141.336	C.2	1	UNK0	0.208	
19	   C	131.979	133.485	140.378	C.2	1	UNK0	0.360	
20	   C	130.498	132.248	138.891	C.3	1	UNK0	0.144	
21	   C	130.660	131.678	137.480	C.3	1	UNK0	0.142	
22	   C	131.082	132.671	135.296	C.2	1	UNK0	0.219	
23	   C	130.895	133.773	134.284	C.3	1	UNK0	0.123	
24	   C	131.248	135.118	134.922	C.3	1	UNK0	0.144	
25	   C	133.470	135.523	133.944	C.2	1	UNK0	0.226	
26	   C	134.917	135.597	134.380	C.3	1	UNK0	0.112	
27	   C	134.854	135.310	135.894	C.3	1	UNK0	0.112	
28	   C	133.378	135.109	136.156	C.2	1	UNK0	0.226	
29	   O	132.924	134.420	140.595	O.2	1	UNK0	-0.302	
30	   O	131.536	132.841	141.308	O.co2	1	UNK0	-0.239	
31	   O	131.777	131.714	135.027	O.2	1	UNK0	-0.274	
32	   O	133.068	135.689	132.813	O.2	1	UNK0	-0.273	
33	   O	132.883	134.857	137.234	O.2	1	UNK0	-0.273	
34	   O	134.154	130.514	144.650	O.2	1	UNK0	-0.362	
35	   O	134.061	131.315	142.445	O.2	1	UNK0	-0.362	
36	   H	137.819	135.810	142.589	 H	1	UNK0	0.174	
37	   H	138.411	134.328	143.116	 H	1	UNK0	0.174	
38	   H	132.487	134.190	147.446	 H	1	UNK0	0.174	
39	   H	133.656	133.093	147.952	 H	1	UNK0	0.174	
40	   H	135.432	136.315	143.050	 H	1	UNK0	0.178	
41	   H	132.665	135.081	145.037	 H	1	UNK0	0.178	
42	   H	135.415	132.353	146.267	 H	1	UNK0	0.180	
43	   H	131.879	133.779	138.386	 H	1	UNK0	0.164	
44	   H	129.922	133.516	136.711	 H	1	UNK0	0.162	
45	   H	134.763	130.446	145.396	 H	1	UNK0	0.213	
46	   H	133.258	131.839	142.573	 H	1	UNK0	0.213	
@<TRIPOS>BOND
1 1 10 1
2 1 36 1
3 1 37 1
4 2 11 1
5 2 40 1
6 3 13 1
7 3 41 1
8 4 38 1
9 4 39 1
10 5 42 1
11 6 15 1
12 7 20 1
13 7 43 1
14 8 22 1
15 8 44 1
16 9 25 1
17 9 28 1
18 2 10 1
19 6 10 1
20 11 12 1
21 11 18 1
22 3 12 1
23 12 14 1
24 4 13 1
25 5 13 1
26 5 14 1
27 6 14 1
28 14 17 1
29 15 16 1
30 16 17 1
31 17 34 2
32 17 35 2
33 18 29 2
34 7 19 1
35 19 30 2
36 20 21 1
37 8 21 1
38 22 23 1
39 22 31 2
40 23 24 1
41 9 24 1
42 25 26 1
43 25 32 2
44 26 27 1
45 27 28 1
46 28 33 2
47 19 29 2
48 34 45 1
49 35 46 1
@<TRIPOS>SUBSTRUCTURE
1	UNK0	1	GROUP	1 ****	UNK
