MODEL 1
REMARK VINA RESULT:      -7.4      0.000      0.000
REMARK  5 active torsions:
REMARK  status: ('A' for Active; 'I' for Inactive)
REMARK    1  A    between atoms: C_6  and  C_7 
REMARK    2  A    between atoms: C_7  and  O_8 
REMARK    3  A    between atoms: O_8  and  C_9 
REMARK       I    between atoms: C_9  and  N_10 
REMARK    4  A    between atoms: C_24  and  O_25 
REMARK    5  A    between atoms: C_24  and  O_26 
ROOT
ATOM      1  N           0     138.062 135.009 142.888  0.00  0.00    -0.235 N 
ATOM      2  H           0     138.140 135.807 142.343  0.00  0.00     0.174 HD
ATOM      3  H           0     138.841 134.452 143.046  0.00  0.00     0.174 HD
ATOM      4  C           0     136.913 134.688 143.413  0.00  0.00     0.672 C 
ATOM      5  N           0     135.778 135.453 143.221  0.00  0.00    -0.218 N 
ATOM      6  C           0     134.478 134.788 143.253  0.00  0.00     0.151 C 
ATOM      7  C           0     134.294 133.931 144.491  0.00  0.00     0.182 C 
ATOM      8  N           0     133.979 134.804 145.642  0.00  0.00    -0.211 N 
ATOM      9  C           0     133.107 135.981 145.623  0.00  0.00     0.169 C 
ATOM     10  C           0     134.652 134.311 146.733  0.00  0.00     0.672 C 
ATOM     11  N           0     134.346 134.589 147.970  0.00  0.00    -0.235 N 
ATOM     12  H           0     133.600 135.178 148.164  0.00  0.00     0.174 HD
ATOM     13  H           0     134.864 134.206 148.695  0.00  0.00     0.174 HD
ATOM     14  C           0     135.547 133.191 144.927  0.00  0.00     0.217 C 
ATOM     15  N           0     135.687 133.489 146.361  0.00  0.00    -0.191 N 
ATOM     16  N           0     136.752 133.564 144.187  0.00  0.00    -0.183 N 
ATOM     17  C           0     137.722 132.476 144.388  0.00  0.00     0.150 C 
ATOM     18  C           0     136.905 131.209 144.713  0.00  0.00     0.093 C 
ATOM     19  C           0     135.422 131.669 144.715  0.00  0.00     0.209 C 
ATOM     20  H           0     135.843 136.409 143.068  0.00  0.00     0.178 HD
ATOM     21  H           0     136.388 133.159 146.944  0.00  0.00     0.180 HD
ENDROOT
BRANCH   6  22
ATOM     22  C           0     134.348 133.898 142.015  0.00  0.00     0.208 C 
BRANCH  22  23
ATOM     23  O           0     133.137 134.247 141.294  0.00  0.00    -0.302 OA
BRANCH  23  24
ATOM     24  C           0     133.219 134.804 140.071  0.00  0.00     0.358 C 
ATOM     25  N           0     133.594 136.092 139.942  0.00  0.00    -0.346 N 
ATOM     26  H           0     133.804 136.618 140.729  0.00  0.00     0.161 HD
ATOM     27  H           0     133.654 136.494 139.060  0.00  0.00     0.161 HD
ATOM     28  O           0     132.956 134.146 139.084  0.00  0.00    -0.239 OA
ENDBRANCH  23  24
ENDBRANCH  22  23
ENDBRANCH   6  22
BRANCH  19  29
ATOM     29  O           0     134.702 131.057 145.786  0.00  0.00    -0.362 OA
ATOM     30  H           0     134.115 130.399 145.389  0.00  0.00     0.213 HD
ENDBRANCH  19  29
BRANCH  19  31
ATOM     31  O           0     134.801 131.387 143.459  0.00  0.00    -0.362 OA
ATOM     32  H           0     134.566 130.449 143.468  0.00  0.00     0.213 HD
ENDBRANCH  19  31
TORSDOF 5
ENDMDL
MODEL 2
REMARK VINA RESULT:      -6.9      2.061      3.049
REMARK  5 active torsions:
REMARK  status: ('A' for Active; 'I' for Inactive)
REMARK    1  A    between atoms: C_6  and  C_7 
REMARK    2  A    between atoms: C_7  and  O_8 
REMARK    3  A    between atoms: O_8  and  C_9 
REMARK       I    between atoms: C_9  and  N_10 
REMARK    4  A    between atoms: C_24  and  O_25 
REMARK    5  A    between atoms: C_24  and  O_26 
ROOT
ATOM      1  N           0     137.481 135.394 143.766  0.00  0.00    -0.235 N 
ATOM      2  H           0     137.752 136.157 144.299  0.00  0.00     0.174 HD
ATOM      3  H           0     137.882 135.243 142.895  0.00  0.00     0.174 HD
ATOM      4  C           0     136.582 134.566 144.221  0.00  0.00     0.672 C 
ATOM      5  N           0     135.987 134.735 145.458  0.00  0.00    -0.218 N 
ATOM      6  C           0     134.631 134.231 145.651  0.00  0.00     0.151 C 
ATOM      7  C           0     134.482 132.783 145.223  0.00  0.00     0.182 C 
ATOM      8  N           0     135.055 131.908 146.269  0.00  0.00    -0.211 N 
ATOM      9  C           0     134.934 132.095 147.716  0.00  0.00     0.169 C 
ATOM     10  C           0     135.722 130.887 145.636  0.00  0.00     0.672 C 
ATOM     11  N           0     136.037 129.755 146.203  0.00  0.00    -0.235 N 
ATOM     12  H           0     135.798 129.595 147.129  0.00  0.00     0.174 HD
ATOM     13  H           0     136.509 129.075 145.698  0.00  0.00     0.174 HD
ATOM     14  C           0     135.267 132.419 143.974  0.00  0.00     0.217 C 
ATOM     15  N           0     136.016 131.205 144.333  0.00  0.00    -0.191 N 
ATOM     16  N           0     136.162 133.474 143.500  0.00  0.00    -0.183 N 
ATOM     17  C           0     136.468 133.165 142.095  0.00  0.00     0.150 C 
ATOM     18  C           0     135.299 132.310 141.565  0.00  0.00     0.093 C 
ATOM     19  C           0     134.341 132.133 142.775  0.00  0.00     0.209 C 
ATOM     20  H           0     136.460 135.177 146.181  0.00  0.00     0.178 HD
ATOM     21  H           0     136.612 130.712 143.749  0.00  0.00     0.180 HD
ENDROOT
BRANCH   6  22
ATOM     22  C           0     133.664 135.087 144.830  0.00  0.00     0.208 C 
BRANCH  22  23
ATOM     23  O           0     134.381 136.212 144.258  0.00  0.00    -0.302 OA
BRANCH  23  24
ATOM     24  C           0     134.210 136.531 142.961  0.00  0.00     0.358 C 
ATOM     25  N           0     134.500 137.774 142.529  0.00  0.00    -0.346 N 
ATOM     26  H           0     134.831 138.439 143.152  0.00  0.00     0.161 HD
ATOM     27  H           0     134.377 138.003 141.594  0.00  0.00     0.161 HD
ATOM     28  O           0     133.796 135.697 142.180  0.00  0.00    -0.239 OA
ENDBRANCH  23  24
ENDBRANCH  22  23
ENDBRANCH   6  22
BRANCH  19  29
ATOM     29  O           0     133.829 130.801 142.826  0.00  0.00    -0.362 OA
ATOM     30  H           0     134.076 130.439 143.688  0.00  0.00     0.213 HD
ENDBRANCH  19  29
BRANCH  19  31
ATOM     31  O           0     133.278 133.085 142.723  0.00  0.00    -0.362 OA
ATOM     32  H           0     132.613 132.796 143.364  0.00  0.00     0.213 HD
ENDBRANCH  19  31
TORSDOF 5
ENDMDL
MODEL 3
REMARK VINA RESULT:      -6.8      7.981     10.613
REMARK  5 active torsions:
REMARK  status: ('A' for Active; 'I' for Inactive)
REMARK    1  A    between atoms: C_6  and  C_7 
REMARK    2  A    between atoms: C_7  and  O_8 
REMARK    3  A    between atoms: O_8  and  C_9 
REMARK       I    between atoms: C_9  and  N_10 
REMARK    4  A    between atoms: C_24  and  O_25 
REMARK    5  A    between atoms: C_24  and  O_26 
ROOT
ATOM      1  N           0     134.076 132.341 132.923  0.00  0.00    -0.235 N 
ATOM      2  H           0     133.973 131.517 132.422  0.00  0.00     0.174 HD
ATOM      3  H           0     134.961 132.709 133.072  0.00  0.00     0.174 HD
ATOM      4  C           0     133.026 132.956 133.391  0.00  0.00     0.672 C 
ATOM      5  N           0     131.745 132.473 133.199  0.00  0.00    -0.218 N 
ATOM      6  C           0     130.730 132.780 134.202  0.00  0.00     0.151 C 
ATOM      7  C           0     130.658 134.261 134.523  0.00  0.00     0.182 C 
ATOM      8  N           0     129.930 134.956 133.439  0.00  0.00    -0.211 N 
ATOM      9  C           0     128.743 134.462 132.737  0.00  0.00     0.169 C 
ATOM     10  C           0     130.569 136.151 133.210  0.00  0.00     0.672 C 
ATOM     11  N           0     130.025 137.167 132.600  0.00  0.00    -0.235 N 
ATOM     12  H           0     129.113 137.107 132.277  0.00  0.00     0.174 HD
ATOM     13  H           0     130.533 137.983 132.471  0.00  0.00     0.174 HD
ATOM     14  C           0     132.008 134.956 134.558  0.00  0.00     0.217 C 
ATOM     15  N           0     131.851 136.142 133.702  0.00  0.00    -0.191 N 
ATOM     16  N           0     133.123 134.123 134.110  0.00  0.00    -0.183 N 
ATOM     17  C           0     134.349 134.747 134.632  0.00  0.00     0.150 C 
ATOM     18  C           0     133.937 135.564 135.873  0.00  0.00     0.093 C 
ATOM     19  C           0     132.399 135.385 135.987  0.00  0.00     0.209 C 
ATOM     20  H           0     131.526 131.943 132.416  0.00  0.00     0.178 HD
ATOM     21  H           0     132.533 136.806 133.520  0.00  0.00     0.180 HD
ENDROOT
BRANCH   6  22
ATOM     22  C           0     131.056 132.015 135.486  0.00  0.00     0.208 C 
BRANCH  22  23
ATOM     23  O           0     130.188 132.473 136.556  0.00  0.00    -0.302 OA
BRANCH  23  24
ATOM     24  C           0     130.273 131.914 137.778  0.00  0.00     0.358 C 
ATOM     25  N           0     130.835 132.599 138.794  0.00  0.00    -0.346 N 
ATOM     26  H           0     131.178 133.494 138.645  0.00  0.00     0.161 HD
ATOM     27  H           0     130.896 132.196 139.675  0.00  0.00     0.161 HD
ATOM     28  O           0     129.843 130.793 137.965  0.00  0.00    -0.239 OA
ENDBRANCH  23  24
ENDBRANCH  22  23
ENDBRANCH   6  22
BRANCH  19  29
ATOM     29  O           0     131.769 136.616 136.346  0.00  0.00    -0.362 OA
ATOM     30  H           0     131.864 136.710 137.303  0.00  0.00     0.213 HD
ENDBRANCH  19  29
BRANCH  19  31
ATOM     31  O           0     132.076 134.357 136.925  0.00  0.00    -0.362 OA
ATOM     32  H           0     131.127 134.190 136.840  0.00  0.00     0.213 HD
ENDBRANCH  19  31
TORSDOF 5
ENDMDL
MODEL 4
REMARK VINA RESULT:      -6.7      1.870      5.567
REMARK  5 active torsions:
REMARK  status: ('A' for Active; 'I' for Inactive)
REMARK    1  A    between atoms: C_6  and  C_7 
REMARK    2  A    between atoms: C_7  and  O_8 
REMARK    3  A    between atoms: O_8  and  C_9 
REMARK       I    between atoms: C_9  and  N_10 
REMARK    4  A    between atoms: C_24  and  O_25 
REMARK    5  A    between atoms: C_24  and  O_26 
ROOT
ATOM      1  N           0     133.591 133.992 146.429  0.00  0.00    -0.235 N 
ATOM      2  H           0     133.627 133.810 147.381  0.00  0.00     0.174 HD
ATOM      3  H           0     132.858 134.511 146.062  0.00  0.00     0.174 HD
ATOM      4  C           0     134.531 133.546 145.643  0.00  0.00     0.672 C 
ATOM      5  N           0     135.598 132.807 146.120  0.00  0.00    -0.218 N 
ATOM      6  C           0     136.225 131.837 145.228  0.00  0.00     0.151 C 
ATOM      7  C           0     136.599 132.437 143.886  0.00  0.00     0.182 C 
ATOM      8  N           0     137.836 133.234 144.040  0.00  0.00    -0.211 N 
ATOM      9  C           0     138.999 132.877 144.854  0.00  0.00     0.169 C 
ATOM     10  C           0     137.694 134.369 143.279  0.00  0.00     0.672 C 
ATOM     11  N           0     138.689 135.115 142.884  0.00  0.00    -0.235 N 
ATOM     12  H           0     139.597 134.878 143.127  0.00  0.00     0.174 HD
ATOM     13  H           0     138.520 135.905 142.348  0.00  0.00     0.174 HD
ATOM     14  C           0     135.587 133.435 143.348  0.00  0.00     0.217 C 
ATOM     15  N           0     136.377 134.622 142.986  0.00  0.00    -0.191 N 
ATOM     16  N           0     134.520 133.773 144.289  0.00  0.00    -0.183 N 
ATOM     17  C           0     133.423 134.344 143.491  0.00  0.00     0.150 C 
ATOM     18  C           0     133.576 133.784 142.062  0.00  0.00     0.093 C 
ATOM     19  C           0     134.849 132.895 142.107  0.00  0.00     0.209 C 
ATOM     20  H           0     135.923 132.931 147.027  0.00  0.00     0.178 HD
ATOM     21  H           0     136.028 135.442 142.603  0.00  0.00     0.180 HD
ENDROOT
BRANCH   6  22
ATOM     22  C           0     135.252 130.679 144.995  0.00  0.00     0.208 C 
BRANCH  22  23
ATOM     23  O           0     134.869 130.105 146.272  0.00  0.00    -0.302 OA
BRANCH  23  24
ATOM     24  C           0     135.383 128.923 146.660  0.00  0.00     0.358 C 
ATOM     25  N           0     136.677 128.839 147.027  0.00  0.00    -0.346 N 
ATOM     26  H           0     137.238 129.630 147.012  0.00  0.00     0.161 HD
ATOM     27  H           0     137.047 127.988 147.308  0.00  0.00     0.161 HD
ATOM     28  O           0     134.680 127.932 146.681  0.00  0.00    -0.239 OA
ENDBRANCH  23  24
ENDBRANCH  22  23
ENDBRANCH   6  22
BRANCH  19  29
ATOM     29  O           0     135.632 133.069 140.925  0.00  0.00    -0.362 OA
ATOM     30  H           0     135.707 134.021 140.776  0.00  0.00     0.213 HD
ENDBRANCH  19  29
BRANCH  19  31
ATOM     31  O           0     134.501 131.521 142.288  0.00  0.00    -0.362 OA
ATOM     32  H           0     134.884 131.245 143.133  0.00  0.00     0.213 HD
ENDBRANCH  19  31
TORSDOF 5
ENDMDL
MODEL 5
REMARK VINA RESULT:      -6.6      2.681      5.098
REMARK  5 active torsions:
REMARK  status: ('A' for Active; 'I' for Inactive)
REMARK    1  A    between atoms: C_6  and  C_7 
REMARK    2  A    between atoms: C_7  and  O_8 
REMARK    3  A    between atoms: O_8  and  C_9 
REMARK       I    between atoms: C_9  and  N_10 
REMARK    4  A    between atoms: C_24  and  O_25 
REMARK    5  A    between atoms: C_24  and  O_26 
ROOT
ATOM      1  N           0     135.271 130.392 143.284  0.00  0.00    -0.235 N 
ATOM      2  H           0     135.740 129.605 143.600  0.00  0.00     0.174 HD
ATOM      3  H           0     134.794 130.366 142.439  0.00  0.00     0.174 HD
ATOM      4  C           0     135.276 131.485 143.995  0.00  0.00     0.672 C 
ATOM      5  N           0     135.937 131.569 145.207  0.00  0.00    -0.218 N 
ATOM      6  C           0     136.449 132.870 145.630  0.00  0.00     0.151 C 
ATOM      7  C           0     135.395 133.959 145.563  0.00  0.00     0.182 C 
ATOM      8  N           0     134.492 133.832 146.728  0.00  0.00    -0.211 N 
ATOM      9  C           0     134.889 133.500 148.098  0.00  0.00     0.169 C 
ATOM     10  C           0     133.214 134.084 146.291  0.00  0.00     0.672 C 
ATOM     11  N           0     132.225 134.413 147.073  0.00  0.00    -0.235 N 
ATOM     12  H           0     132.369 134.494 148.029  0.00  0.00     0.174 HD
ATOM     13  H           0     131.345 134.578 146.700  0.00  0.00     0.174 HD
ATOM     14  C           0     134.464 133.851 144.367  0.00  0.00     0.217 C 
ATOM     15  N           0     133.108 133.946 144.929  0.00  0.00    -0.191 N 
ATOM     16  N           0     134.632 132.627 143.586  0.00  0.00    -0.183 N 
ATOM     17  C           0     134.030 132.884 142.268  0.00  0.00     0.150 C 
ATOM     18  C           0     134.067 134.411 142.055  0.00  0.00     0.093 C 
ATOM     19  C           0     134.695 134.990 143.352  0.00  0.00     0.209 C 
ATOM     20  H           0     136.057 130.783 145.764  0.00  0.00     0.178 HD
ATOM     21  H           0     132.281 133.918 144.424  0.00  0.00     0.180 HD
ENDROOT
BRANCH   6  22
ATOM     22  C           0     137.617 133.260 144.723  0.00  0.00     0.208 C 
BRANCH  22  23
ATOM     23  O           0     138.585 132.177 144.689  0.00  0.00    -0.302 OA
BRANCH  23  24
ATOM     24  C           0     139.273 131.855 145.802  0.00  0.00     0.358 C 
ATOM     25  N           0     139.215 130.599 146.288  0.00  0.00    -0.346 N 
ATOM     26  H           0     138.678 129.928 145.838  0.00  0.00     0.161 HD
ATOM     27  H           0     139.711 130.366 147.089  0.00  0.00     0.161 HD
ATOM     28  O           0     139.946 132.695 146.365  0.00  0.00    -0.239 OA
ENDBRANCH  23  24
ENDBRANCH  22  23
ENDBRANCH   6  22
BRANCH  19  29
ATOM     29  O           0     134.021 136.183 143.755  0.00  0.00    -0.362 OA
ATOM     30  H           0     133.436 135.941 144.486  0.00  0.00     0.213 HD
ENDBRANCH  19  29
BRANCH  19  31
ATOM     31  O           0     136.092 135.229 143.177  0.00  0.00    -0.362 OA
ATOM     32  H           0     136.383 135.754 143.936  0.00  0.00     0.213 HD
ENDBRANCH  19  31
TORSDOF 5
ENDMDL
MODEL 6
REMARK VINA RESULT:      -6.6      9.014     10.986
REMARK  5 active torsions:
REMARK  status: ('A' for Active; 'I' for Inactive)
REMARK    1  A    between atoms: C_6  and  C_7 
REMARK    2  A    between atoms: C_7  and  O_8 
REMARK    3  A    between atoms: O_8  and  C_9 
REMARK       I    between atoms: C_9  and  N_10 
REMARK    4  A    between atoms: C_24  and  O_25 
REMARK    5  A    between atoms: C_24  and  O_26 
ROOT
ATOM      1  N           0     134.718 132.957 132.844  0.00  0.00    -0.235 N 
ATOM      2  H           0     134.743 132.274 132.157  0.00  0.00     0.174 HD
ATOM      3  H           0     135.538 133.238 133.279  0.00  0.00     0.174 HD
ATOM      4  C           0     133.582 133.503 133.180  0.00  0.00     0.672 C 
ATOM      5  N           0     132.388 133.139 132.585  0.00  0.00    -0.218 N 
ATOM      6  C           0     131.158 133.261 133.364  0.00  0.00     0.151 C 
ATOM      7  C           0     131.002 134.633 133.991  0.00  0.00     0.182 C 
ATOM      8  N           0     130.552 135.591 132.957  0.00  0.00    -0.211 N 
ATOM      9  C           0     129.572 135.326 131.901  0.00  0.00     0.169 C 
ATOM     10  C           0     131.219 136.772 133.168  0.00  0.00     0.672 C 
ATOM     11  N           0     130.832 137.926 132.700  0.00  0.00    -0.235 N 
ATOM     12  H           0     130.024 137.985 132.165  0.00  0.00     0.174 HD
ATOM     13  H           0     131.350 138.724 132.886  0.00  0.00     0.174 HD
ATOM     14  C           0     132.299 135.234 134.504  0.00  0.00     0.217 C 
ATOM     15  N           0     132.344 136.590 133.934  0.00  0.00    -0.191 N 
ATOM     16  N           0     133.495 134.470 134.152  0.00  0.00    -0.183 N 
ATOM     17  C           0     134.555 134.898 135.078  0.00  0.00     0.150 C 
ATOM     18  C           0     133.850 135.434 136.341  0.00  0.00     0.093 C 
ATOM     19  C           0     132.331 135.310 136.044  0.00  0.00     0.209 C 
ATOM     20  H           0     132.367 132.811 131.672  0.00  0.00     0.178 HD
ATOM     21  H           0     133.047 137.243 134.076  0.00  0.00     0.180 HD
ENDROOT
BRANCH   6  22
ATOM     22  C           0     131.171 132.210 134.475  0.00  0.00     0.208 C 
BRANCH  22  23
ATOM     23  O           0     131.177 130.883 133.886  0.00  0.00    -0.302 OA
BRANCH  23  24
ATOM     24  C           0     132.277 130.111 133.977  0.00  0.00     0.358 C 
ATOM     25  N           0     132.270 128.867 133.459  0.00  0.00    -0.346 N 
ATOM     26  H           0     131.473 128.527 133.022  0.00  0.00     0.161 HD
ATOM     27  H           0     133.062 128.311 133.523  0.00  0.00     0.161 HD
ATOM     28  O           0     133.275 130.537 134.523  0.00  0.00    -0.239 OA
ENDBRANCH  23  24
ENDBRANCH  22  23
ENDBRANCH   6  22
BRANCH  19  29
ATOM     29  O           0     131.625 136.457 136.519  0.00  0.00    -0.362 OA
ATOM     30  H           0     131.428 136.299 137.452  0.00  0.00     0.213 HD
ENDBRANCH  19  29
BRANCH  19  31
ATOM     31  O           0     131.798 134.113 136.616  0.00  0.00    -0.362 OA
ATOM     32  H           0     131.871 133.425 135.940  0.00  0.00     0.213 HD
ENDBRANCH  19  31
TORSDOF 5
ENDMDL
MODEL 7
REMARK VINA RESULT:      -6.4      2.413      4.461
REMARK  5 active torsions:
REMARK  status: ('A' for Active; 'I' for Inactive)
REMARK    1  A    between atoms: C_6  and  C_7 
REMARK    2  A    between atoms: C_7  and  O_8 
REMARK    3  A    between atoms: O_8  and  C_9 
REMARK       I    between atoms: C_9  and  N_10 
REMARK    4  A    between atoms: C_24  and  O_25 
REMARK    5  A    between atoms: C_24  and  O_26 
ROOT
ATOM      1  N           0     136.529 135.858 143.848  0.00  0.00    -0.235 N 
ATOM      2  H           0     136.489 136.684 144.355  0.00  0.00     0.174 HD
ATOM      3  H           0     136.811 135.872 142.920  0.00  0.00     0.174 HD
ATOM      4  C           0     136.212 134.728 144.415  0.00  0.00     0.672 C 
ATOM      5  N           0     135.811 134.656 145.737  0.00  0.00    -0.218 N 
ATOM      6  C           0     134.902 133.583 146.130  0.00  0.00     0.151 C 
ATOM      7  C           0     135.389 132.217 145.685  0.00  0.00     0.182 C 
ATOM      8  N           0     136.464 131.766 146.596  0.00  0.00    -0.211 N 
ATOM      9  C           0     136.498 131.943 148.049  0.00  0.00     0.169 C 
ATOM     10  C           0     137.424 131.150 145.830  0.00  0.00     0.672 C 
ATOM     11  N           0     138.320 130.328 146.302  0.00  0.00    -0.235 N 
ATOM     12  H           0     138.334 130.118 147.249  0.00  0.00     0.174 HD
ATOM     13  H           0     138.971 129.926 145.706  0.00  0.00     0.174 HD
ATOM     14  C           0     136.044 132.206 144.315  0.00  0.00     0.217 C 
ATOM     15  N           0     137.323 131.505 144.508  0.00  0.00    -0.191 N 
ATOM     16  N           0     136.249 133.534 143.737  0.00  0.00    -0.183 N 
ATOM     17  C           0     136.439 133.338 142.291  0.00  0.00     0.150 C 
ATOM     18  C           0     135.744 132.009 141.929  0.00  0.00     0.093 C 
ATOM     19  C           0     135.187 131.461 143.272  0.00  0.00     0.209 C 
ATOM     20  H           0     136.127 135.304 146.388  0.00  0.00     0.178 HD
ATOM     21  H           0     137.981 131.323 143.820  0.00  0.00     0.180 HD
ENDROOT
BRANCH   6  22
ATOM     22  C           0     133.530 133.844 145.505  0.00  0.00     0.208 C 
BRANCH  22  23
ATOM     23  O           0     132.736 134.661 146.405  0.00  0.00    -0.302 OA
BRANCH  23  24
ATOM     24  C           0     132.601 134.302 147.696  0.00  0.00     0.358 C 
ATOM     25  N           0     132.118 133.083 148.009  0.00  0.00    -0.346 N 
ATOM     26  H           0     131.867 132.465 147.305  0.00  0.00     0.161 HD
ATOM     27  H           0     132.021 132.824 148.939  0.00  0.00     0.161 HD
ATOM     28  O           0     132.915 135.076 148.578  0.00  0.00    -0.239 OA
ENDBRANCH  23  24
ENDBRANCH  22  23
ENDBRANCH   6  22
BRANCH  19  29
ATOM     29  O           0     135.379 130.048 143.362  0.00  0.00    -0.362 OA
ATOM     30  H           0     134.527 129.665 143.610  0.00  0.00     0.213 HD
ENDBRANCH  19  29
BRANCH  19  31
ATOM     31  O           0     133.807 131.797 143.424  0.00  0.00    -0.362 OA
ATOM     32  H           0     133.760 132.483 144.104  0.00  0.00     0.213 HD
ENDBRANCH  19  31
TORSDOF 5
ENDMDL
MODEL 8
REMARK VINA RESULT:      -6.1      3.411      6.372
REMARK  5 active torsions:
REMARK  status: ('A' for Active; 'I' for Inactive)
REMARK    1  A    between atoms: C_6  and  C_7 
REMARK    2  A    between atoms: C_7  and  O_8 
REMARK    3  A    between atoms: O_8  and  C_9 
REMARK       I    between atoms: C_9  and  N_10 
REMARK    4  A    between atoms: C_24  and  O_25 
REMARK    5  A    between atoms: C_24  and  O_26 
ROOT
ATOM      1  N           0     133.603 132.476 148.167  0.00  0.00    -0.235 N 
ATOM      2  H           0     133.281 132.223 149.046  0.00  0.00     0.174 HD
ATOM      3  H           0     133.195 133.219 147.696  0.00  0.00     0.174 HD
ATOM      4  C           0     134.589 131.821 147.621  0.00  0.00     0.672 C 
ATOM      5  N           0     135.207 130.759 148.255  0.00  0.00    -0.218 N 
ATOM      6  C           0     135.803 129.710 147.432  0.00  0.00     0.151 C 
ATOM      7  C           0     136.735 130.262 146.371  0.00  0.00     0.182 C 
ATOM      8  N           0     138.023 130.629 147.001  0.00  0.00    -0.211 N 
ATOM      9  C           0     138.721 129.875 148.043  0.00  0.00     0.169 C 
ATOM     10  C           0     138.443 131.805 146.429  0.00  0.00     0.672 C 
ATOM     11  N           0     139.674 132.236 146.463  0.00  0.00    -0.235 N 
ATOM     12  H           0     140.357 131.716 146.913  0.00  0.00     0.174 HD
ATOM     13  H           0     139.905 133.077 146.038  0.00  0.00     0.174 HD
ATOM     14  C           0     136.258 131.558 145.738  0.00  0.00     0.217 C 
ATOM     15  N           0     137.410 132.470 145.817  0.00  0.00    -0.191 N 
ATOM     16  N           0     135.077 132.138 146.376  0.00  0.00    -0.183 N 
ATOM     17  C           0     134.491 133.074 145.404  0.00  0.00     0.150 C 
ATOM     18  C           0     134.939 132.599 144.006  0.00  0.00     0.093 C 
ATOM     19  C           0     135.841 131.362 144.266  0.00  0.00     0.209 C 
ATOM     20  H           0     135.243 130.711 149.224  0.00  0.00     0.178 HD
ATOM     21  H           0     137.436 133.382 145.490  0.00  0.00     0.180 HD
ENDROOT
BRANCH   6  22
ATOM     22  C           0     134.684 128.926 146.743  0.00  0.00     0.208 C 
BRANCH  22  23
ATOM     23  O           0     134.031 128.063 147.712  0.00  0.00    -0.302 OA
BRANCH  23  24
ATOM     24  C           0     132.687 127.982 147.744  0.00  0.00     0.358 C 
ATOM     25  N           0     131.981 128.815 148.533  0.00  0.00    -0.346 N 
ATOM     26  H           0     132.440 129.472 149.079  0.00  0.00     0.161 HD
ATOM     27  H           0     131.013 128.757 148.555  0.00  0.00     0.161 HD
ATOM     28  O           0     132.112 127.159 147.059  0.00  0.00    -0.239 OA
ENDBRANCH  23  24
ENDBRANCH  22  23
ENDBRANCH   6  22
BRANCH  19  29
ATOM     29  O           0     136.979 131.373 143.402  0.00  0.00    -0.362 OA
ATOM     30  H           0     137.708 130.971 143.895  0.00  0.00     0.213 HD
ENDBRANCH  19  29
BRANCH  19  31
ATOM     31  O           0     135.098 130.151 144.112  0.00  0.00    -0.362 OA
ATOM     32  H           0     134.833 130.102 143.183  0.00  0.00     0.213 HD
ENDBRANCH  19  31
TORSDOF 5
ENDMDL
MODEL 9
REMARK VINA RESULT:      -6.1      2.831      4.707
REMARK  5 active torsions:
REMARK  status: ('A' for Active; 'I' for Inactive)
REMARK    1  A    between atoms: C_6  and  C_7 
REMARK    2  A    between atoms: C_7  and  O_8 
REMARK    3  A    between atoms: O_8  and  C_9 
REMARK       I    between atoms: C_9  and  N_10 
REMARK    4  A    between atoms: C_24  and  O_25 
REMARK    5  A    between atoms: C_24  and  O_26 
ROOT
ATOM      1  N           0     133.948 132.363 143.548  0.00  0.00    -0.235 N 
ATOM      2  H           0     134.138 131.875 142.732  0.00  0.00     0.174 HD
ATOM      3  H           0     133.224 133.008 143.570  0.00  0.00     0.174 HD
ATOM      4  C           0     134.661 132.147 144.618  0.00  0.00     0.672 C 
ATOM      5  N           0     135.698 131.233 144.638  0.00  0.00    -0.218 N 
ATOM      6  C           0     136.811 131.465 145.555  0.00  0.00     0.151 C 
ATOM      7  C           0     136.348 131.721 146.978  0.00  0.00     0.182 C 
ATOM      8  N           0     135.978 130.433 147.605  0.00  0.00    -0.211 N 
ATOM      9  C           0     136.685 129.160 147.451  0.00  0.00     0.169 C 
ATOM     10  C           0     134.851 130.650 148.360  0.00  0.00     0.672 C 
ATOM     11  N           0     134.450 129.863 149.320  0.00  0.00    -0.235 N 
ATOM     12  H           0     134.960 129.067 149.539  0.00  0.00     0.174 HD
ATOM     13  H           0     133.644 130.074 149.815  0.00  0.00     0.174 HD
ATOM     14  C           0     135.082 132.553 147.079  0.00  0.00     0.217 C 
ATOM     15  N           0     134.197 131.796 147.979  0.00  0.00    -0.191 N 
ATOM     16  N           0     134.433 132.818 145.796  0.00  0.00    -0.183 N 
ATOM     17  C           0     133.543 133.971 146.005  0.00  0.00     0.150 C 
ATOM     18  C           0     134.114 134.760 147.201  0.00  0.00     0.093 C 
ATOM     19  C           0     135.356 133.952 147.667  0.00  0.00     0.209 C 
ATOM     20  H           0     135.687 130.456 144.057  0.00  0.00     0.178 HD
ATOM     21  H           0     133.308 132.061 148.257  0.00  0.00     0.180 HD
ENDROOT
BRANCH   6  22
ATOM     22  C           0     137.605 132.680 145.071  0.00  0.00     0.208 C 
BRANCH  22  23
ATOM     23  O           0     137.999 132.479 143.688  0.00  0.00    -0.302 OA
BRANCH  23  24
ATOM     24  C           0     137.473 133.253 142.719  0.00  0.00     0.358 C 
ATOM     25  N           0     138.016 134.457 142.450  0.00  0.00    -0.346 N 
ATOM     26  H           0     138.785 134.766 142.954  0.00  0.00     0.161 HD
ATOM     27  H           0     137.638 135.014 141.752  0.00  0.00     0.161 HD
ATOM     28  O           0     136.510 132.865 142.088  0.00  0.00    -0.239 OA
ENDBRANCH  23  24
ENDBRANCH  22  23
ENDBRANCH   6  22
BRANCH  19  29
ATOM     29  O           0     135.428 133.908 149.092  0.00  0.00    -0.362 OA
ATOM     30  H           0     135.725 134.781 149.385  0.00  0.00     0.213 HD
ENDBRANCH  19  29
BRANCH  19  31
ATOM     31  O           0     136.554 134.501 147.114  0.00  0.00    -0.362 OA
ATOM     32  H           0     136.621 135.410 147.440  0.00  0.00     0.213 HD
ENDBRANCH  19  31
TORSDOF 5
ENDMDL
