# created with PyMOL 2.3.4
@<TRIPOS>MOLECULE
ligand_out_0001
32 34 1                 
SMALL
USER_CHARGES
@<TRIPOS>ATOM
1	   N	138.062	135.009	142.888	N.3	1	UNK0	-0.235	
2	   N	135.778	135.453	143.221	N.3	1	UNK0	-0.218	
3	   N	133.979	134.804	145.642	N.3	1	UNK0	-0.211	
4	   N	134.346	134.589	147.970	N.3	1	UNK0	-0.235	
5	   N	135.687	133.489	146.361	N.3	1	UNK0	-0.191	
6	   N	136.752	133.564	144.187	N.3	1	UNK0	-0.183	
7	   N	133.594	136.092	139.942	N.pl3	1	UNK0	-0.346	
8	   C	136.913	134.688	143.413	C.3	1	UNK0	0.672	
9	   C	134.478	134.788	143.253	C.3	1	UNK0	0.151	
10	   C	134.294	133.931	144.491	C.3	1	UNK0	0.182	
11	   C	133.107	135.981	145.623	C.3	1	UNK0	0.169	
12	   C	134.652	134.311	146.733	C.3	1	UNK0	0.672	
13	   C	135.547	133.191	144.927	C.3	1	UNK0	0.217	
14	   C	137.722	132.476	144.388	C.3	1	UNK0	0.150	
15	   C	136.905	131.209	144.713	C.3	1	UNK0	0.093	
16	   C	135.422	131.669	144.715	C.3	1	UNK0	0.209	
17	   C	134.348	133.898	142.015	C.2	1	UNK0	0.208	
18	   C	133.219	134.804	140.071	C.2	1	UNK0	0.358	
19	   O	133.137	134.247	141.294	O.2	1	UNK0	-0.302	
20	   O	132.956	134.146	139.084	O.co2	1	UNK0	-0.239	
21	   O	134.702	131.057	145.786	O.2	1	UNK0	-0.362	
22	   O	134.801	131.387	143.459	O.2	1	UNK0	-0.362	
23	   H	138.140	135.807	142.343	 H	1	UNK0	0.174	
24	   H	138.841	134.452	143.046	 H	1	UNK0	0.174	
25	   H	133.600	135.178	148.164	 H	1	UNK0	0.174	
26	   H	134.864	134.206	148.695	 H	1	UNK0	0.174	
27	   H	135.843	136.409	143.068	 H	1	UNK0	0.178	
28	   H	136.388	133.159	146.944	 H	1	UNK0	0.180	
29	   H	133.804	136.618	140.729	 H	1	UNK0	0.161	
30	   H	133.654	136.494	139.060	 H	1	UNK0	0.161	
31	   H	134.115	130.399	145.389	 H	1	UNK0	0.213	
32	   H	134.566	130.449	143.468	 H	1	UNK0	0.213	
@<TRIPOS>BOND
1 1 8 1
2 1 23 1
3 1 24 1
4 2 9 1
5 2 27 1
6 3 11 1
7 3 12 1
8 4 25 1
9 4 26 1
10 5 28 1
11 6 14 1
12 7 29 1
13 7 30 1
14 2 8 1
15 6 8 1
16 9 10 1
17 9 17 1
18 3 10 1
19 10 13 1
20 4 12 1
21 5 12 1
22 5 13 1
23 6 13 1
24 13 16 1
25 14 15 1
26 15 16 1
27 16 21 2
28 16 22 2
29 17 19 2
30 7 18 1
31 18 20 2
32 18 19 2
33 21 31 1
34 22 32 1
@<TRIPOS>SUBSTRUCTURE
1	UNK0	1	GROUP	1 ****	UNK
