MODEL 1
REMARK VINA RESULT:      -7.3      0.000      0.000
REMARK  5 active torsions:
REMARK  status: ('A' for Active; 'I' for Inactive)
REMARK    1  A    between atoms: C_6  and  C_7 
REMARK    2  A    between atoms: C_7  and  O_8 
REMARK    3  A    between atoms: O_8  and  C_9 
REMARK    4  A    between atoms: C_23  and  O_24 
REMARK    5  A    between atoms: C_23  and  O_25 
ROOT
ATOM      1  N           0     137.786 135.293 143.423  0.00  0.00    -0.235 N 
ATOM      2  H           0     137.964 136.223 143.213  0.00  0.00     0.174 HD
ATOM      3  H           0     138.520 134.666 143.505  0.00  0.00     0.174 HD
ATOM      4  C           0     136.560 134.889 143.604  0.00  0.00     0.672 C 
ATOM      5  N           0     135.479 135.748 143.505  0.00  0.00    -0.218 N 
ATOM      6  C           0     134.191 135.194 143.097  0.00  0.00     0.151 C 
ATOM      7  C           0     133.789 133.983 143.916  0.00  0.00     0.180 C 
ATOM      8  N           0     133.298 134.430 145.237  0.00  0.00    -0.216 N 
ATOM      9  C           0     133.767 133.545 146.176  0.00  0.00     0.670 C 
ATOM     10  N           0     133.259 133.404 147.368  0.00  0.00    -0.235 N 
ATOM     11  H           0     132.499 133.944 147.639  0.00  0.00     0.174 HD
ATOM     12  H           0     133.638 132.758 147.984  0.00  0.00     0.174 HD
ATOM     13  C           0     134.942 133.050 144.254  0.00  0.00     0.217 C 
ATOM     14  N           0     134.838 132.827 145.705  0.00  0.00    -0.191 N 
ATOM     15  N           0     136.258 133.585 143.899  0.00  0.00    -0.183 N 
ATOM     16  C           0     137.158 132.419 143.870  0.00  0.00     0.150 C 
ATOM     17  C           0     136.301 131.288 143.251  0.00  0.00     0.093 C 
ATOM     18  C           0     134.832 131.708 143.509  0.00  0.00     0.209 C 
ATOM     19  H           0     135.574 136.693 143.703  0.00  0.00     0.178 HD
ATOM     20  H           0     132.744 135.209 145.409  0.00  0.00     0.178 HD
ATOM     21  H           0     135.424 132.267 146.237  0.00  0.00     0.180 HD
ENDROOT
BRANCH   6  22
ATOM     22  C           0     134.272 134.788 141.625  0.00  0.00     0.206 C 
BRANCH  22  23
ATOM     23  O           0     133.027 134.157 141.227  0.00  0.00    -0.320 OA
BRANCH  23  24
ATOM     24  C           0     132.695 134.085 139.929  0.00  0.00     0.254 C 
ATOM     25  C           0     133.255 135.085 138.950  0.00  0.00     0.126 C 
ATOM     26  O           0     131.947 133.217 139.544  0.00  0.00    -0.266 OA
ENDBRANCH  23  24
ENDBRANCH  22  23
ENDBRANCH   6  22
BRANCH  18  27
ATOM     27  O           0     134.171 130.736 144.319  0.00  0.00    -0.362 OA
ATOM     28  H           0     133.235 130.763 144.080  0.00  0.00     0.213 HD
ENDBRANCH  18  27
BRANCH  18  29
ATOM     29  O           0     134.140 131.883 142.271  0.00  0.00    -0.362 OA
ATOM     30  H           0     133.996 132.833 142.164  0.00  0.00     0.213 HD
ENDBRANCH  18  29
TORSDOF 5
ENDMDL
MODEL 2
REMARK VINA RESULT:      -7.3      3.066      5.564
REMARK  5 active torsions:
REMARK  status: ('A' for Active; 'I' for Inactive)
REMARK    1  A    between atoms: C_6  and  C_7 
REMARK    2  A    between atoms: C_7  and  O_8 
REMARK    3  A    between atoms: O_8  and  C_9 
REMARK    4  A    between atoms: C_23  and  O_24 
REMARK    5  A    between atoms: C_23  and  O_25 
ROOT
ATOM      1  N           0     135.335 132.555 147.025  0.00  0.00    -0.235 N 
ATOM      2  H           0     135.565 132.827 147.927  0.00  0.00     0.174 HD
ATOM      3  H           0     134.790 131.766 146.881  0.00  0.00     0.174 HD
ATOM      4  C           0     135.753 133.253 146.006  0.00  0.00     0.672 C 
ATOM      5  N           0     136.527 134.390 146.160  0.00  0.00    -0.218 N 
ATOM      6  C           0     137.449 134.748 145.087  0.00  0.00     0.151 C 
ATOM      7  C           0     136.778 134.786 143.727  0.00  0.00     0.180 C 
ATOM      8  N           0     135.988 136.030 143.608  0.00  0.00    -0.216 N 
ATOM      9  C           0     134.817 135.718 142.962  0.00  0.00     0.670 C 
ATOM     10  N           0     134.053 136.592 142.368  0.00  0.00    -0.235 N 
ATOM     11  H           0     134.301 137.530 142.365  0.00  0.00     0.174 HD
ATOM     12  H           0     133.238 136.304 141.929  0.00  0.00     0.174 HD
ATOM     13  C           0     135.754 133.682 143.509  0.00  0.00     0.217 C 
ATOM     14  N           0     134.550 134.373 143.018  0.00  0.00    -0.191 N 
ATOM     15  N           0     135.457 132.905 144.714  0.00  0.00    -0.183 N 
ATOM     16  C           0     134.836 131.659 144.231  0.00  0.00     0.150 C 
ATOM     17  C           0     135.623 131.311 142.945  0.00  0.00     0.093 C 
ATOM     18  C           0     136.229 132.655 142.467  0.00  0.00     0.209 C 
ATOM     19  H           0     136.458 134.934 146.960  0.00  0.00     0.178 HD
ATOM     20  H           0     136.250 136.908 143.929  0.00  0.00     0.178 HD
ATOM     21  H           0     133.713 133.949 142.773  0.00  0.00     0.180 HD
ENDROOT
BRANCH   6  22
ATOM     22  C           0     138.584 133.724 145.047  0.00  0.00     0.206 C 
BRANCH  22  23
ATOM     23  O           0     139.660 134.161 145.918  0.00  0.00    -0.320 OA
BRANCH  23  24
ATOM     24  C           0     139.952 133.462 147.026  0.00  0.00     0.254 C 
ATOM     25  C           0     139.189 132.203 147.348  0.00  0.00     0.126 C 
ATOM     26  O           0     140.827 133.844 147.768  0.00  0.00    -0.266 OA
ENDBRANCH  23  24
ENDBRANCH  22  23
ENDBRANCH   6  22
BRANCH  18  27
ATOM     27  O           0     135.737 132.990 141.169  0.00  0.00    -0.362 OA
ATOM     28  H           0     135.250 132.220 140.847  0.00  0.00     0.213 HD
ENDBRANCH  18  27
BRANCH  18  29
ATOM     29  O           0     137.656 132.582 142.457  0.00  0.00    -0.362 OA
ATOM     30  H           0     137.915 132.076 143.239  0.00  0.00     0.213 HD
ENDBRANCH  18  29
TORSDOF 5
ENDMDL
MODEL 3
REMARK VINA RESULT:      -7.3      3.103      5.260
REMARK  5 active torsions:
REMARK  status: ('A' for Active; 'I' for Inactive)
REMARK    1  A    between atoms: C_6  and  C_7 
REMARK    2  A    between atoms: C_7  and  O_8 
REMARK    3  A    between atoms: O_8  and  C_9 
REMARK    4  A    between atoms: C_23  and  O_24 
REMARK    5  A    between atoms: C_23  and  O_25 
ROOT
ATOM      1  N           0     135.391 130.850 143.271  0.00  0.00    -0.235 N 
ATOM      2  H           0     134.743 130.158 143.477  0.00  0.00     0.174 HD
ATOM      3  H           0     136.105 130.672 142.639  0.00  0.00     0.174 HD
ATOM      4  C           0     135.299 132.020 143.837  0.00  0.00     0.672 C 
ATOM      5  N           0     134.295 132.324 144.740  0.00  0.00    -0.218 N 
ATOM      6  C           0     134.568 133.326 145.766  0.00  0.00     0.151 C 
ATOM      7  C           0     135.125 134.614 145.192  0.00  0.00     0.180 C 
ATOM      8  N           0     134.025 135.389 144.578  0.00  0.00    -0.216 N 
ATOM      9  C           0     134.508 135.946 143.419  0.00  0.00     0.670 C 
ATOM     10  N           0     133.960 136.963 142.812  0.00  0.00    -0.235 N 
ATOM     11  H           0     133.161 137.373 143.178  0.00  0.00     0.174 HD
ATOM     12  H           0     134.353 137.309 141.997  0.00  0.00     0.174 HD
ATOM     13  C           0     136.109 134.411 144.050  0.00  0.00     0.217 C 
ATOM     14  N           0     135.637 135.302 142.978  0.00  0.00    -0.191 N 
ATOM     15  N           0     136.192 133.027 143.581  0.00  0.00    -0.183 N 
ATOM     16  C           0     137.461 132.943 142.837  0.00  0.00     0.150 C 
ATOM     17  C           0     138.443 133.819 143.651  0.00  0.00     0.093 C 
ATOM     18  C           0     137.544 134.793 144.454  0.00  0.00     0.209 C 
ATOM     19  H           0     133.432 131.882 144.692  0.00  0.00     0.178 HD
ATOM     20  H           0     133.126 135.485 144.930  0.00  0.00     0.178 HD
ATOM     21  H           0     136.054 135.418 142.110  0.00  0.00     0.180 HD
ENDROOT
BRANCH   6  22
ATOM     22  C           0     135.578 132.753 146.760  0.00  0.00     0.206 C 
BRANCH  22  23
ATOM     23  O           0     135.029 131.558 147.375  0.00  0.00    -0.320 OA
BRANCH  23  24
ATOM     24  C           0     135.583 130.361 147.131  0.00  0.00     0.254 C 
ATOM     25  C           0     136.790 129.914 147.915  0.00  0.00     0.126 C 
ATOM     26  O           0     135.116 129.641 146.280  0.00  0.00    -0.266 OA
ENDBRANCH  23  24
ENDBRANCH  22  23
ENDBRANCH   6  22
BRANCH  18  27
ATOM     27  O           0     137.826 136.145 144.091  0.00  0.00    -0.362 OA
ATOM     28  H           0     136.998 136.636 144.178  0.00  0.00     0.213 HD
ENDBRANCH  18  27
BRANCH  18  29
ATOM     29  O           0     137.732 134.602 145.857  0.00  0.00    -0.362 OA
ATOM     30  H           0     138.686 134.609 146.015  0.00  0.00     0.213 HD
ENDBRANCH  18  29
TORSDOF 5
ENDMDL
MODEL 4
REMARK VINA RESULT:      -7.1      3.240      5.190
REMARK  5 active torsions:
REMARK  status: ('A' for Active; 'I' for Inactive)
REMARK    1  A    between atoms: C_6  and  C_7 
REMARK    2  A    between atoms: C_7  and  O_8 
REMARK    3  A    between atoms: O_8  and  C_9 
REMARK    4  A    between atoms: C_23  and  O_24 
REMARK    5  A    between atoms: C_23  and  O_25 
ROOT
ATOM      1  N           0     135.792 133.252 141.090  0.00  0.00    -0.235 N 
ATOM      2  H           0     136.500 133.189 140.429  0.00  0.00     0.174 HD
ATOM      3  H           0     134.900 133.522 140.820  0.00  0.00     0.174 HD
ATOM      4  C           0     136.038 132.967 142.338  0.00  0.00     0.672 C 
ATOM      5  N           0     137.293 132.572 142.769  0.00  0.00    -0.218 N 
ATOM      6  C           0     137.675 132.868 144.146  0.00  0.00     0.151 C 
ATOM      7  C           0     136.637 132.410 145.153  0.00  0.00     0.180 C 
ATOM      8  N           0     136.741 130.946 145.327  0.00  0.00    -0.216 N 
ATOM      9  C           0     135.464 130.448 145.426  0.00  0.00     0.670 C 
ATOM     10  N           0     135.169 129.285 145.937  0.00  0.00    -0.235 N 
ATOM     11  H           0     135.875 128.712 146.277  0.00  0.00     0.174 HD
ATOM     12  H           0     134.246 128.994 145.978  0.00  0.00     0.174 HD
ATOM     13  C           0     135.199 132.622 144.703  0.00  0.00     0.217 C 
ATOM     14  N           0     134.538 131.326 144.922  0.00  0.00    -0.191 N 
ATOM     15  N           0     135.074 133.045 143.308  0.00  0.00    -0.183 N 
ATOM     16  C           0     133.721 133.620 143.195  0.00  0.00     0.150 C 
ATOM     17  C           0     133.515 134.380 144.527  0.00  0.00     0.093 C 
ATOM     18  C           0     134.495 133.715 145.526  0.00  0.00     0.209 C 
ATOM     19  H           0     137.902 132.109 142.171  0.00  0.00     0.178 HD
ATOM     20  H           0     137.562 130.429 145.364  0.00  0.00     0.178 HD
ATOM     21  H           0     133.605 131.127 144.744  0.00  0.00     0.180 HD
ENDROOT
BRANCH   6  22
ATOM     22  C           0     137.869 134.378 144.292  0.00  0.00     0.206 C 
BRANCH  22  23
ATOM     23  O           0     139.117 134.641 144.984  0.00  0.00    -0.320 OA
BRANCH  23  24
ATOM     24  C           0     139.156 135.538 145.982  0.00  0.00     0.254 C 
ATOM     25  C           0     138.718 135.144 147.368  0.00  0.00     0.126 C 
ATOM     26  O           0     139.540 136.664 145.767  0.00  0.00    -0.266 OA
ENDBRANCH  23  24
ENDBRANCH  22  23
ENDBRANCH   6  22
BRANCH  18  27
ATOM     27  O           0     133.778 133.138 146.619  0.00  0.00    -0.362 OA
ATOM     28  H           0     133.619 132.212 146.391  0.00  0.00     0.213 HD
ENDBRANCH  18  27
BRANCH  18  29
ATOM     29  O           0     135.447 134.669 146.001  0.00  0.00    -0.362 OA
ATOM     30  H           0     136.265 134.517 145.508  0.00  0.00     0.213 HD
ENDBRANCH  18  29
TORSDOF 5
ENDMDL
MODEL 5
REMARK VINA RESULT:      -7.0      1.640      2.121
REMARK  5 active torsions:
REMARK  status: ('A' for Active; 'I' for Inactive)
REMARK    1  A    between atoms: C_6  and  C_7 
REMARK    2  A    between atoms: C_7  and  O_8 
REMARK    3  A    between atoms: O_8  and  C_9 
REMARK    4  A    between atoms: C_23  and  O_24 
REMARK    5  A    between atoms: C_23  and  O_25 
ROOT
ATOM      1  N           0     135.424 136.484 143.251  0.00  0.00    -0.235 N 
ATOM      2  H           0     134.661 137.032 143.010  0.00  0.00     0.174 HD
ATOM      3  H           0     136.320 136.853 143.201  0.00  0.00     0.174 HD
ATOM      4  C           0     135.246 135.256 143.650  0.00  0.00     0.672 C 
ATOM      5  N           0     133.987 134.688 143.744  0.00  0.00    -0.218 N 
ATOM      6  C           0     133.866 133.243 143.575  0.00  0.00     0.151 C 
ATOM      7  C           0     134.827 132.469 144.456  0.00  0.00     0.180 C 
ATOM      8  N           0     134.313 132.456 145.842  0.00  0.00    -0.216 N 
ATOM      9  C           0     135.387 132.612 146.684  0.00  0.00     0.670 C 
ATOM     10  N           0     135.379 132.294 147.949  0.00  0.00    -0.235 N 
ATOM     11  H           0     134.577 131.921 148.350  0.00  0.00     0.174 HD
ATOM     12  H           0     136.172 132.430 148.488  0.00  0.00     0.174 HD
ATOM     13  C           0     136.203 133.104 144.584  0.00  0.00     0.217 C 
ATOM     14  N           0     136.470 133.144 146.031  0.00  0.00    -0.191 N 
ATOM     15  N           0     136.292 134.442 143.998  0.00  0.00    -0.183 N 
ATOM     16  C           0     137.733 134.691 143.811  0.00  0.00     0.150 C 
ATOM     17  C           0     138.302 133.325 143.359  0.00  0.00     0.093 C 
ATOM     18  C           0     137.287 132.274 143.875  0.00  0.00     0.209 C 
ATOM     19  H           0     133.205 135.236 143.919  0.00  0.00     0.178 HD
ATOM     20  H           0     133.385 132.355 146.109  0.00  0.00     0.178 HD
ATOM     21  H           0     137.275 133.486 146.450  0.00  0.00     0.180 HD
ENDROOT
BRANCH   6  22
ATOM     22  C           0     134.147 132.892 142.113  0.00  0.00     0.206 C 
BRANCH  22  23
ATOM     23  O           0     132.925 132.424 141.484  0.00  0.00    -0.320 OA
BRANCH  23  24
ATOM     24  C           0     132.222 133.246 140.689  0.00  0.00     0.254 C 
ATOM     25  C           0     132.935 134.274 139.849  0.00  0.00     0.126 C 
ATOM     26  O           0     131.017 133.161 140.646  0.00  0.00    -0.266 OA
ENDBRANCH  23  24
ENDBRANCH  22  23
ENDBRANCH   6  22
BRANCH  18  27
ATOM     27  O           0     137.918 131.381 144.793  0.00  0.00    -0.362 OA
ATOM     28  H           0     138.687 131.011 144.340  0.00  0.00     0.213 HD
ENDBRANCH  18  27
BRANCH  18  29
ATOM     29  O           0     136.721 131.550 142.781  0.00  0.00    -0.362 OA
ATOM     30  H           0     135.777 131.759 142.766  0.00  0.00     0.213 HD
ENDBRANCH  18  29
TORSDOF 5
ENDMDL
MODEL 6
REMARK VINA RESULT:      -7.0      2.396      3.981
REMARK  5 active torsions:
REMARK  status: ('A' for Active; 'I' for Inactive)
REMARK    1  A    between atoms: C_6  and  C_7 
REMARK    2  A    between atoms: C_7  and  O_8 
REMARK    3  A    between atoms: O_8  and  C_9 
REMARK    4  A    between atoms: C_23  and  O_24 
REMARK    5  A    between atoms: C_23  and  O_25 
ROOT
ATOM      1  N           0     137.995 134.819 144.372  0.00  0.00    -0.235 N 
ATOM      2  H           0     138.387 135.449 144.997  0.00  0.00     0.174 HD
ATOM      3  H           0     138.383 134.706 143.490  0.00  0.00     0.174 HD
ATOM      4  C           0     136.952 134.119 144.720  0.00  0.00     0.672 C 
ATOM      5  N           0     136.367 134.240 145.969  0.00  0.00    -0.218 N 
ATOM      6  C           0     134.940 133.959 146.093  0.00  0.00     0.151 C 
ATOM      7  C           0     134.551 132.622 145.490  0.00  0.00     0.180 C 
ATOM      8  N           0     134.953 131.538 146.412  0.00  0.00    -0.216 N 
ATOM      9  C           0     135.439 130.504 145.649  0.00  0.00     0.670 C 
ATOM     10  N           0     135.545 129.274 146.066  0.00  0.00    -0.235 N 
ATOM     11  H           0     135.271 129.042 146.968  0.00  0.00     0.174 HD
ATOM     12  H           0     135.896 128.590 145.476  0.00  0.00     0.174 HD
ATOM     13  C           0     135.279 132.289 144.197  0.00  0.00     0.217 C 
ATOM     14  N           0     135.799 130.926 144.394  0.00  0.00    -0.191 N 
ATOM     15  N           0     136.360 133.220 143.871  0.00  0.00    -0.183 N 
ATOM     16  C           0     136.625 133.022 142.435  0.00  0.00     0.150 C 
ATOM     17  C           0     135.225 132.807 141.812  0.00  0.00     0.093 C 
ATOM     18  C           0     134.335 132.318 142.983  0.00  0.00     0.209 C 
ATOM     19  H           0     136.892 134.503 146.741  0.00  0.00     0.178 HD
ATOM     20  H           0     134.886 131.555 147.380  0.00  0.00     0.178 HD
ATOM     21  H           0     136.307 130.413 143.746  0.00  0.00     0.180 HD
ENDROOT
BRANCH   6  22
ATOM     22  C           0     134.155 135.064 145.385  0.00  0.00     0.206 C 
BRANCH  22  23
ATOM     23  O           0     132.754 134.976 145.754  0.00  0.00    -0.320 OA
BRANCH  23  24
ATOM     24  C           0     132.392 135.060 147.044  0.00  0.00     0.254 C 
ATOM     25  C           0     132.420 136.391 147.749  0.00  0.00     0.126 C 
ATOM     26  O           0     132.045 134.068 147.640  0.00  0.00    -0.266 OA
ENDBRANCH  23  24
ENDBRANCH  22  23
ENDBRANCH   6  22
BRANCH  18  27
ATOM     27  O           0     133.826 131.012 142.710  0.00  0.00    -0.362 OA
ATOM     28  H           0     133.836 130.903 141.750  0.00  0.00     0.213 HD
ENDBRANCH  18  27
BRANCH  18  29
ATOM     29  O           0     133.263 133.236 143.210  0.00  0.00    -0.362 OA
ATOM     30  H           0     132.634 133.114 142.486  0.00  0.00     0.213 HD
ENDBRANCH  18  29
TORSDOF 5
ENDMDL
MODEL 7
REMARK VINA RESULT:      -6.8      2.375      3.369
REMARK  5 active torsions:
REMARK  status: ('A' for Active; 'I' for Inactive)
REMARK    1  A    between atoms: C_6  and  C_7 
REMARK    2  A    between atoms: C_7  and  O_8 
REMARK    3  A    between atoms: O_8  and  C_9 
REMARK    4  A    between atoms: C_23  and  O_24 
REMARK    5  A    between atoms: C_23  and  O_25 
ROOT
ATOM      1  N           0     134.428 134.853 146.292  0.00  0.00    -0.235 N 
ATOM      2  H           0     133.571 135.270 146.114  0.00  0.00     0.174 HD
ATOM      3  H           0     135.049 135.265 146.912  0.00  0.00     0.174 HD
ATOM      4  C           0     134.743 133.734 145.701  0.00  0.00     0.672 C 
ATOM      5  N           0     133.888 133.104 144.814  0.00  0.00    -0.218 N 
ATOM      6  C           0     134.472 132.279 143.761  0.00  0.00     0.151 C 
ATOM      7  C           0     135.468 131.266 144.294  0.00  0.00     0.180 C 
ATOM      8  N           0     134.734 130.143 144.914  0.00  0.00    -0.216 N 
ATOM      9  C           0     135.415 129.779 146.050  0.00  0.00     0.670 C 
ATOM     10  N           0     135.283 128.626 146.646  0.00  0.00    -0.235 N 
ATOM     11  H           0     134.672 127.963 146.288  0.00  0.00     0.174 HD
ATOM     12  H           0     135.795 128.432 147.445  0.00  0.00     0.174 HD
ATOM     13  C           0     136.346 131.792 145.419  0.00  0.00     0.217 C 
ATOM     14  N           0     136.252 130.777 146.481  0.00  0.00    -0.191 N 
ATOM     15  N           0     135.944 133.109 145.916  0.00  0.00    -0.183 N 
ATOM     16  C           0     137.120 133.630 146.635  0.00  0.00     0.150 C 
ATOM     17  C           0     138.326 133.173 145.781  0.00  0.00     0.093 C 
ATOM     18  C           0     137.811 131.953 144.977  0.00  0.00     0.209 C 
ATOM     19  H           0     132.926 133.208 144.890  0.00  0.00     0.178 HD
ATOM     20  H           0     133.918 129.736 144.580  0.00  0.00     0.178 HD
ATOM     21  H           0     136.707 130.807 147.337  0.00  0.00     0.180 HD
ENDROOT
BRANCH   6  22
ATOM     22  C           0     135.184 133.188 142.758  0.00  0.00     0.206 C 
BRANCH  22  23
ATOM     23  O           0     134.566 133.046 141.452  0.00  0.00    -0.320 OA
BRANCH  23  24
ATOM     24  C           0     133.443 133.722 141.163  0.00  0.00     0.254 C 
ATOM     25  C           0     132.162 132.976 140.896  0.00  0.00     0.126 C 
ATOM     26  O           0     133.460 134.929 141.116  0.00  0.00    -0.266 OA
ENDBRANCH  23  24
ENDBRANCH  22  23
ENDBRANCH   6  22
BRANCH  18  27
ATOM     27  O           0     138.566 130.786 145.304  0.00  0.00    -0.362 OA
ATOM     28  H           0     138.622 130.254 144.498  0.00  0.00     0.213 HD
ENDBRANCH  18  27
BRANCH  18  29
ATOM     29  O           0     137.879 132.216 143.574  0.00  0.00    -0.362 OA
ATOM     30  H           0     137.142 131.743 143.165  0.00  0.00     0.213 HD
ENDBRANCH  18  29
TORSDOF 5
ENDMDL
MODEL 8
REMARK VINA RESULT:      -6.7      2.687      5.503
REMARK  5 active torsions:
REMARK  status: ('A' for Active; 'I' for Inactive)
REMARK    1  A    between atoms: C_6  and  C_7 
REMARK    2  A    between atoms: C_7  and  O_8 
REMARK    3  A    between atoms: O_8  and  C_9 
REMARK    4  A    between atoms: C_23  and  O_24 
REMARK    5  A    between atoms: C_23  and  O_25 
ROOT
ATOM      1  N           0     132.867 133.729 145.129  0.00  0.00    -0.235 N 
ATOM      2  H           0     132.257 133.642 145.878  0.00  0.00     0.174 HD
ATOM      3  H           0     132.551 134.090 144.287  0.00  0.00     0.174 HD
ATOM      4  C           0     134.113 133.367 145.258  0.00  0.00     0.672 C 
ATOM      5  N           0     134.612 132.853 146.442  0.00  0.00    -0.218 N 
ATOM      6  C           0     135.738 131.927 146.373  0.00  0.00     0.151 C 
ATOM      7  C           0     136.887 132.464 145.542  0.00  0.00     0.180 C 
ATOM      8  N           0     137.628 133.472 146.330  0.00  0.00    -0.216 N 
ATOM      9  C           0     137.973 134.492 145.478  0.00  0.00     0.670 C 
ATOM     10  N           0     138.919 135.358 145.717  0.00  0.00    -0.235 N 
ATOM     11  H           0     139.430 135.303 146.540  0.00  0.00     0.174 HD
ATOM     12  H           0     139.113 136.054 145.072  0.00  0.00     0.174 HD
ATOM     13  C           0     136.453 133.222 144.297  0.00  0.00     0.217 C 
ATOM     14  N           0     137.201 134.489 144.343  0.00  0.00    -0.191 N 
ATOM     15  N           0     135.011 133.467 144.228  0.00  0.00    -0.183 N 
ATOM     16  C           0     134.737 133.780 142.814  0.00  0.00     0.150 C 
ATOM     17  C           0     135.661 132.824 142.023  0.00  0.00     0.093 C 
ATOM     18  C           0     136.799 132.457 143.008  0.00  0.00     0.209 C 
ATOM     19  H           0     134.224 133.103 147.296  0.00  0.00     0.178 HD
ATOM     20  H           0     137.833 133.421 147.277  0.00  0.00     0.178 HD
ATOM     21  H           0     137.157 135.199 143.684  0.00  0.00     0.180 HD
ENDROOT
BRANCH   6  22
ATOM     22  C           0     135.259 130.611 145.758  0.00  0.00     0.206 C 
BRANCH  22  23
ATOM     23  O           0     135.628 129.508 146.626  0.00  0.00    -0.320 OA
BRANCH  23  24
ATOM     24  C           0     134.700 128.917 147.394  0.00  0.00     0.254 C 
ATOM     25  C           0     134.437 129.429 148.787  0.00  0.00     0.126 C 
ATOM     26  O           0     134.075 127.974 146.970  0.00  0.00    -0.266 OA
ENDBRANCH  23  24
ENDBRANCH  22  23
ENDBRANCH   6  22
BRANCH  18  27
ATOM     27  O           0     138.061 132.885 142.493  0.00  0.00    -0.362 OA
ATOM     28  H           0     138.228 133.764 142.858  0.00  0.00     0.213 HD
ENDBRANCH  18  27
BRANCH  18  29
ATOM     29  O           0     136.811 131.049 143.254  0.00  0.00    -0.362 OA
ATOM     30  H           0     136.148 130.658 142.669  0.00  0.00     0.213 HD
ENDBRANCH  18  29
TORSDOF 5
ENDMDL
MODEL 9
REMARK VINA RESULT:      -6.5      2.807      5.248
REMARK  5 active torsions:
REMARK  status: ('A' for Active; 'I' for Inactive)
REMARK    1  A    between atoms: C_6  and  C_7 
REMARK    2  A    between atoms: C_7  and  O_8 
REMARK    3  A    between atoms: O_8  and  C_9 
REMARK    4  A    between atoms: C_23  and  O_24 
REMARK    5  A    between atoms: C_23  and  O_25 
ROOT
ATOM      1  N           0     134.426 130.791 143.949  0.00  0.00    -0.235 N 
ATOM      2  H           0     134.780 129.951 144.283  0.00  0.00     0.174 HD
ATOM      3  H           0     133.800 130.792 143.209  0.00  0.00     0.174 HD
ATOM      4  C           0     134.787 131.915 144.501  0.00  0.00     0.672 C 
ATOM      5  N           0     135.673 131.963 145.563  0.00  0.00    -0.218 N 
ATOM      6  C           0     136.496 133.158 145.723  0.00  0.00     0.151 C 
ATOM      7  C           0     135.682 134.438 145.697  0.00  0.00     0.180 C 
ATOM      8  N           0     134.999 134.606 146.997  0.00  0.00    -0.216 N 
ATOM      9  C           0     133.739 135.091 146.744  0.00  0.00     0.670 C 
ATOM     10  N           0     132.995 135.693 147.630  0.00  0.00    -0.235 N 
ATOM     11  H           0     133.324 135.821 148.534  0.00  0.00     0.174 HD
ATOM     12  H           0     132.113 136.012 147.385  0.00  0.00     0.174 HD
ATOM     13  C           0     134.545 134.430 144.686  0.00  0.00     0.217 C 
ATOM     14  N           0     133.361 134.865 145.444  0.00  0.00    -0.191 N 
ATOM     15  N           0     134.318 133.126 144.063  0.00  0.00    -0.183 N 
ATOM     16  C           0     133.537 133.407 142.845  0.00  0.00     0.150 C 
ATOM     17  C           0     134.140 134.723 142.298  0.00  0.00     0.093 C 
ATOM     18  C           0     134.806 135.401 143.521  0.00  0.00     0.209 C 
ATOM     19  H           0     135.744 131.223 146.186  0.00  0.00     0.178 HD
ATOM     20  H           0     135.373 134.409 147.871  0.00  0.00     0.178 HD
ATOM     21  H           0     132.466 134.976 145.086  0.00  0.00     0.180 HD
ENDROOT
BRANCH   6  22
ATOM     22  C           0     137.523 133.205 144.591  0.00  0.00     0.206 C 
BRANCH  22  23
ATOM     23  O           0     138.582 132.249 144.857  0.00  0.00    -0.320 OA
BRANCH  23  24
ATOM     24  C           0     139.749 132.664 145.372  0.00  0.00     0.254 C 
ATOM     25  C           0     139.864 132.948 146.847  0.00  0.00     0.126 C 
ATOM     26  O           0     140.709 132.813 144.652  0.00  0.00    -0.266 OA
ENDBRANCH  23  24
ENDBRANCH  22  23
ENDBRANCH   6  22
BRANCH  18  27
ATOM     27  O           0     134.202 136.669 143.779  0.00  0.00    -0.362 OA
ATOM     28  H           0     133.253 136.513 143.873  0.00  0.00     0.213 HD
ENDBRANCH  18  27
BRANCH  18  29
ATOM     29  O           0     136.211 135.550 143.305  0.00  0.00    -0.362 OA
ATOM     30  H           0     136.450 134.939 142.595  0.00  0.00     0.213 HD
ENDBRANCH  18  29
TORSDOF 5
ENDMDL
