# created with PyMOL 2.3.4
@<TRIPOS>MOLECULE
ligand_out_0001
30 32 1                 
SMALL
USER_CHARGES
@<TRIPOS>ATOM
1	   N	137.786	135.293	143.423	N.3	1	UNK0	-0.235	
2	   N	135.479	135.748	143.505	N.3	1	UNK0	-0.218	
3	   N	133.298	134.430	145.237	N.3	1	UNK0	-0.216	
4	   N	133.259	133.404	147.368	N.3	1	UNK0	-0.235	
5	   N	134.838	132.827	145.705	N.3	1	UNK0	-0.191	
6	   N	136.258	133.585	143.899	N.3	1	UNK0	-0.183	
7	   C	136.560	134.889	143.604	C.3	1	UNK0	0.672	
8	   C	134.191	135.194	143.097	C.3	1	UNK0	0.151	
9	   C	133.789	133.983	143.916	C.3	1	UNK0	0.180	
10	   C	133.767	133.545	146.176	C.3	1	UNK0	0.670	
11	   C	134.942	133.050	144.254	C.3	1	UNK0	0.217	
12	   C	137.158	132.419	143.870	C.3	1	UNK0	0.150	
13	   C	136.301	131.288	143.251	C.3	1	UNK0	0.093	
14	   C	134.832	131.708	143.509	C.3	1	UNK0	0.209	
15	   C	134.272	134.788	141.625	C.2	1	UNK0	0.206	
16	   C	132.695	134.085	139.929	C.2	1	UNK0	0.254	
17	   C	133.255	135.085	138.950	C.3	1	UNK0	0.126	
18	   O	133.027	134.157	141.227	O.2	1	UNK0	-0.320	
19	   O	131.947	133.217	139.544	O.co2	1	UNK0	-0.266	
20	   O	134.171	130.736	144.319	O.2	1	UNK0	-0.362	
21	   O	134.140	131.883	142.271	O.2	1	UNK0	-0.362	
22	   H	137.964	136.223	143.213	 H	1	UNK0	0.174	
23	   H	138.520	134.666	143.505	 H	1	UNK0	0.174	
24	   H	132.499	133.944	147.639	 H	1	UNK0	0.174	
25	   H	133.638	132.758	147.984	 H	1	UNK0	0.174	
26	   H	135.574	136.693	143.703	 H	1	UNK0	0.178	
27	   H	132.744	135.209	145.409	 H	1	UNK0	0.178	
28	   H	135.424	132.267	146.237	 H	1	UNK0	0.180	
29	   H	133.235	130.763	144.080	 H	1	UNK0	0.213	
30	   H	133.996	132.833	142.164	 H	1	UNK0	0.213	
@<TRIPOS>BOND
1 1 7 1
2 1 22 1
3 1 23 1
4 2 8 1
5 2 26 1
6 3 10 1
7 3 27 1
8 4 24 1
9 4 25 1
10 5 28 1
11 6 12 1
12 2 7 1
13 6 7 1
14 8 9 1
15 8 15 1
16 3 9 1
17 9 11 1
18 4 10 1
19 5 10 1
20 5 11 1
21 6 11 1
22 11 14 1
23 12 13 1
24 13 14 1
25 14 20 2
26 14 21 2
27 15 18 2
28 16 17 1
29 16 19 2
30 16 18 2
31 20 29 1
32 21 30 1
@<TRIPOS>SUBSTRUCTURE
1	UNK0	1	GROUP	1 ****	UNK
