# created with PyMOL 2.3.4
@<TRIPOS>MOLECULE
ligand_out_0001
71 77 1                 
SMALL
USER_CHARGES
@<TRIPOS>ATOM
1	   N	138.846	132.860	144.929	N.pl3	1	UNK0	-0.337	
2	   N	138.544	129.948	149.372	N.3	1	UNK0	-0.218	
3	   N	137.896	127.699	149.131	N.3	1	UNK0	-0.235	
4	   N	136.529	129.419	148.324	N.3	1	UNK0	-0.183	
5	   N	135.033	131.130	149.151	N.3	1	UNK0	-0.191	
6	   N	136.785	132.449	149.746	N.3	1	UNK0	-0.216	
7	   N	134.668	132.864	150.718	N.3	1	UNK0	-0.235	
8	   N	133.273	133.744	140.339	N.pl3	1	UNK0	-0.357	
9	   C	134.706	133.887	142.317	C.3	1	UNK0	0.020	
10	   C	135.562	132.760	141.736	C.3	1	UNK0	0.002	
11	   C	136.673	132.402	142.726	C.3	1	UNK0	0.002	
12	   C	137.477	133.659	143.066	C.3	1	UNK0	0.020	
13	   C	138.882	133.258	143.519	C.3	1	UNK0	0.125	
14	   C	139.982	132.495	145.555	C.2	1	UNK0	0.360	
15	   C	139.179	130.967	147.257	C.2	1	UNK0	0.208	
16	   C	138.575	131.212	148.641	C.3	1	UNK0	0.151	
17	   C	137.662	128.969	148.950	C.3	1	UNK0	0.672	
18	   C	136.100	130.812	148.189	C.3	1	UNK0	0.217	
19	   C	135.520	128.627	147.598	C.3	1	UNK0	0.150	
20	   C	137.199	131.824	148.472	C.3	1	UNK0	0.180	
21	   C	135.561	130.935	146.752	C.3	1	UNK0	0.209	
22	   C	135.448	132.189	149.920	C.3	1	UNK0	0.670	
23	   C	135.179	129.486	146.357	C.3	1	UNK0	0.093	
24	   C	133.271	133.753	141.804	C.3	1	UNK0	0.123	
25	   C	133.240	134.906	139.658	C.2	1	UNK0	0.251	
26	   C	133.243	134.896	138.178	C.3	1	UNK0	0.032	
27	   C	132.187	134.302	137.482	C.3	1	UNK0	0.025	
28	   C	132.185	134.298	136.106	C.3	1	UNK0	-0.036	
29	   C	133.247	134.879	135.403	C.3	1	UNK0	-0.017	
30	   C	134.306	135.468	136.101	C.3	1	UNK0	0.014	
31	   C	134.303	135.476	137.478	C.3	1	UNK0	0.018	
32	   C	131.043	133.662	135.355	C.3	1	UNK0	0.149	
33	   C	130.988	132.191	135.677	C.2	1	UNK0	0.143	
34	   C	133.249	134.868	133.928	C.3	1	UNK0	0.001	
35	   C	133.889	133.786	133.178	C.3	1	UNK0	0.013	
36	   C	134.522	132.727	133.845	C.3	1	UNK0	0.060	
37	   C	133.864	133.821	131.769	C.2	1	UNK0	0.090	
38	   C	135.113	131.730	133.125	C.3	1	UNK0	0.150	
39	   C	135.090	131.758	131.728	C.2	1	UNK0	0.106	
40	   C	134.470	132.797	131.055	C.3	1	UNK0	0.077	
41	   C	132.655	135.852	131.774	C.2	1	UNK0	0.091	
42	   C	132.627	135.897	133.189	C.3	1	UNK0	0.013	
43	   C	132.046	136.862	131.054	C.3	1	UNK0	0.096	
44	   C	131.989	136.964	133.853	C.3	1	UNK0	0.061	
45	   C	131.389	137.948	133.137	C.3	1	UNK0	0.167	
46	   C	131.411	137.913	131.725	C.2	1	UNK0	0.212	
47	   O	141.036	132.495	144.951	O.co2	1	UNK0	-0.239	
48	   O	139.948	132.130	146.851	O.2	1	UNK0	-0.302	
49	   O	134.412	131.782	146.717	O.2	1	UNK0	-0.362	
50	   O	136.578	131.437	145.883	O.2	1	UNK0	-0.362	
51	   O	133.208	135.963	140.258	O.2	1	UNK0	-0.268	
52	   O	131.857	131.452	135.278	O.co2	1	UNK0	-0.650	
53	   O	129.973	131.701	136.407	O.2	1	UNK0	-0.776	
54	   O	133.256	134.836	131.121	O.2	1	UNK0	-0.309	
55	   O	130.872	138.807	131.085	O.2	1	UNK0	-0.285	
56	   O	135.681	130.759	131.025	O.2	1	UNK0	-0.358	
57	   F	135.723	130.708	133.766	 F	1	UNK0	-0.203	
58	   F	130.773	138.967	133.777	 F	1	UNK0	-0.202	
59	   H	138.004	132.860	145.411	 H	1	UNK0	0.164	
60	   H	139.127	129.798	150.133	 H	1	UNK0	0.178	
61	   H	138.710	127.414	149.574	 H	1	UNK0	0.174	
62	   H	137.253	127.039	148.826	 H	1	UNK0	0.174	
63	   H	137.354	132.951	150.350	 H	1	UNK0	0.178	
64	   H	135.026	133.604	151.235	 H	1	UNK0	0.174	
65	   H	133.730	132.628	150.795	 H	1	UNK0	0.174	
66	   H	134.182	130.672	149.228	 H	1	UNK0	0.180	
67	   H	133.705	131.278	146.292	 H	1	UNK0	0.213	
68	   H	137.265	131.816	146.447	 H	1	UNK0	0.213	
69	   H	133.299	132.902	139.860	 H	1	UNK0	0.162	
70	   H	129.182	132.237	136.555	 H	1	UNK0	0.167	
71	   H	136.089	130.167	131.671	 H	1	UNK0	0.217	
@<TRIPOS>BOND
1 1 14 1
2 1 59 1
3 2 17 1
4 2 60 1
5 3 61 1
6 3 62 1
7 4 18 1
8 4 19 1
9 5 22 1
10 5 66 1
11 6 22 1
12 6 63 1
13 7 64 1
14 7 65 1
15 8 25 1
16 8 69 1
17 9 10 1
18 9 24 1
19 10 11 1
20 11 12 1
21 12 13 1
22 1 13 1
23 14 47 2
24 14 48 2
25 15 16 1
26 2 16 1
27 16 20 1
28 3 17 1
29 4 17 1
30 5 18 1
31 18 20 1
32 18 21 1
33 19 23 1
34 6 20 1
35 21 23 1
36 21 49 2
37 21 50 2
38 7 22 1
39 8 24 1
40 25 26 1
41 25 51 2
42 26 27 1
43 26 31 1
44 27 28 1
45 28 29 1
46 28 32 1
47 29 30 1
48 29 34 1
49 30 31 1
50 32 33 1
51 33 52 2
52 33 53 2
53 34 35 1
54 34 42 1
55 35 36 1
56 35 37 1
57 36 38 1
58 37 40 1
59 37 54 2
60 38 39 1
61 38 57 1
62 39 40 1
63 39 56 2
64 41 42 1
65 41 43 1
66 42 44 1
67 43 46 1
68 44 45 1
69 45 46 1
70 45 58 1
71 46 55 2
72 15 48 2
73 49 67 1
74 50 68 1
75 53 70 1
76 41 54 2
77 56 71 1
@<TRIPOS>SUBSTRUCTURE
1	UNK0	1	GROUP	1 ****	UNK
