MODEL 1
REMARK VINA RESULT:      -9.0      0.000      0.000
REMARK  18 active torsions:
REMARK  status: ('A' for Active; 'I' for Inactive)
REMARK    1  A    between atoms: C_6  and  C_7 
REMARK    2  A    between atoms: C_7  and  O_8 
REMARK    3  A    between atoms: O_8  and  C_9 
REMARK       I    between atoms: C_9  and  N_10 
REMARK    4  A    between atoms: N_10  and  C_11 
REMARK    5  A    between atoms: C_11  and  C_12 
REMARK    6  A    between atoms: C_12  and  C_13 
REMARK    7  A    between atoms: C_13  and  C_14 
REMARK    8  A    between atoms: C_14  and  C_15 
REMARK    9  A    between atoms: C_15  and  C_16 
REMARK   10  A    between atoms: C_16  and  N_17 
REMARK       I    between atoms: N_17  and  C_18 
REMARK   11  A    between atoms: C_18  and  C_19 
REMARK   12  A    between atoms: C_22  and  C_23 
REMARK   13  A    between atoms: C_28  and  O_29 
REMARK   14  A    between atoms: C_41  and  C_42 
REMARK   15  A    between atoms: C_42  and  C_43 
REMARK   16  A    between atoms: C_43  and  O_44 
REMARK   17  A    between atoms: C_60  and  O_61 
REMARK   18  A    between atoms: C_60  and  O_62 
ROOT
ATOM      1  C           0     134.706 133.887 142.317  0.00  0.00     0.020 C 
ENDROOT
BRANCH   1   2
ATOM      2  C           0     135.562 132.760 141.736  0.00  0.00     0.002 C 
BRANCH   2   3
ATOM      3  C           0     136.673 132.402 142.726  0.00  0.00     0.002 C 
BRANCH   3   4
ATOM      4  C           0     137.477 133.659 143.066  0.00  0.00     0.020 C 
BRANCH   4   5
ATOM      5  C           0     138.882 133.258 143.519  0.00  0.00     0.125 C 
BRANCH   5   6
ATOM      6  N           0     138.846 132.860 144.929  0.00  0.00    -0.337 N 
ATOM      7  C           0     139.982 132.495 145.555  0.00  0.00     0.360 C 
ATOM      8  O           0     141.036 132.495 144.951  0.00  0.00    -0.239 OA
ATOM      9  H           0     138.004 132.860 145.411  0.00  0.00     0.164 HD
BRANCH   7  10
ATOM     10  O           0     139.948 132.130 146.851  0.00  0.00    -0.302 OA
BRANCH  10  11
ATOM     11  C           0     139.179 130.967 147.257  0.00  0.00     0.208 C 
BRANCH  11  12
ATOM     12  C           0     138.575 131.212 148.641  0.00  0.00     0.151 C 
ATOM     13  N           0     138.544 129.948 149.372  0.00  0.00    -0.218 N 
ATOM     14  C           0     137.662 128.969 148.950  0.00  0.00     0.672 C 
ATOM     15  H           0     139.127 129.798 150.133  0.00  0.00     0.178 HD
ATOM     16  N           0     137.896 127.699 149.131  0.00  0.00    -0.235 N 
ATOM     17  N           0     136.529 129.419 148.324  0.00  0.00    -0.183 N 
ATOM     18  H           0     138.710 127.414 149.574  0.00  0.00     0.174 HD
ATOM     19  H           0     137.253 127.039 148.826  0.00  0.00     0.174 HD
ATOM     20  C           0     136.100 130.812 148.189  0.00  0.00     0.217 C 
ATOM     21  C           0     135.520 128.627 147.598  0.00  0.00     0.150 C 
ATOM     22  C           0     137.199 131.824 148.472  0.00  0.00     0.180 C 
ATOM     23  C           0     135.561 130.935 146.752  0.00  0.00     0.209 C 
ATOM     24  N           0     135.033 131.130 149.151  0.00  0.00    -0.191 N 
ATOM     25  N           0     136.785 132.449 149.746  0.00  0.00    -0.216 N 
ATOM     26  C           0     135.448 132.189 149.920  0.00  0.00     0.670 C 
ATOM     27  H           0     137.354 132.951 150.350  0.00  0.00     0.178 HD
ATOM     28  N           0     134.668 132.864 150.718  0.00  0.00    -0.235 N 
ATOM     29  H           0     135.026 133.604 151.235  0.00  0.00     0.174 HD
ATOM     30  H           0     133.730 132.628 150.795  0.00  0.00     0.174 HD
ATOM     31  C           0     135.179 129.486 146.357  0.00  0.00     0.093 C 
ATOM     32  H           0     134.182 130.672 149.228  0.00  0.00     0.180 HD
BRANCH  23  33
ATOM     33  O           0     134.412 131.782 146.717  0.00  0.00    -0.362 OA
ATOM     34  H           0     133.705 131.278 146.292  0.00  0.00     0.213 HD
ENDBRANCH  23  33
BRANCH  23  35
ATOM     35  O           0     136.578 131.437 145.883  0.00  0.00    -0.362 OA
ATOM     36  H           0     137.265 131.816 146.447  0.00  0.00     0.213 HD
ENDBRANCH  23  35
ENDBRANCH  11  12
ENDBRANCH  10  11
ENDBRANCH   7  10
ENDBRANCH   5   6
ENDBRANCH   4   5
ENDBRANCH   3   4
ENDBRANCH   2   3
ENDBRANCH   1   2
BRANCH   1  37
ATOM     37  C           0     133.271 133.753 141.804  0.00  0.00     0.123 C 
BRANCH  37  38
ATOM     38  N           0     133.273 133.744 140.339  0.00  0.00    -0.357 N 
ATOM     39  C           0     133.240 134.906 139.658  0.00  0.00     0.251 C 
ATOM     40  O           0     133.208 135.963 140.258  0.00  0.00    -0.268 OA
ATOM     41  H           0     133.299 132.902 139.860  0.00  0.00     0.162 HD
BRANCH  39  42
ATOM     42  C           0     133.243 134.896 138.178  0.00  0.00     0.032 A 
ATOM     43  C           0     132.187 134.302 137.482  0.00  0.00     0.025 A 
ATOM     44  C           0     132.185 134.298 136.106  0.00  0.00    -0.036 A 
ATOM     45  C           0     133.247 134.879 135.403  0.00  0.00    -0.017 A 
ATOM     46  C           0     134.306 135.468 136.101  0.00  0.00     0.014 A 
ATOM     47  C           0     134.303 135.476 137.478  0.00  0.00     0.018 A 
BRANCH  44  48
ATOM     48  C           0     131.043 133.662 135.355  0.00  0.00     0.149 C 
BRANCH  48  49
ATOM     49  C           0     130.988 132.191 135.677  0.00  0.00     0.143 C 
ATOM     50  O           0     131.857 131.452 135.278  0.00  0.00    -0.650 OA
BRANCH  49  51
ATOM     51  O           0     129.973 131.701 136.407  0.00  0.00    -0.776 OA
ATOM     52  H           0     129.182 132.237 136.555  0.00  0.00     0.167 HD
ENDBRANCH  49  51
ENDBRANCH  48  49
ENDBRANCH  44  48
BRANCH  45  53
ATOM     53  C           0     133.249 134.868 133.928  0.00  0.00     0.001 A 
ATOM     54  C           0     133.889 133.786 133.178  0.00  0.00     0.013 A 
ATOM     55  C           0     134.522 132.727 133.845  0.00  0.00     0.060 A 
ATOM     56  C           0     133.864 133.821 131.769  0.00  0.00     0.090 A 
ATOM     57  C           0     135.113 131.730 133.125  0.00  0.00     0.150 A 
ATOM     58  F           0     135.723 130.708 133.766  0.00  0.00    -0.203 F 
ATOM     59  C           0     135.090 131.758 131.728  0.00  0.00     0.106 A 
ATOM     60  C           0     134.470 132.797 131.055  0.00  0.00     0.077 A 
ATOM     61  O           0     133.256 134.836 131.121  0.00  0.00    -0.309 OA
ATOM     62  C           0     132.655 135.852 131.774  0.00  0.00     0.091 A 
ATOM     63  C           0     132.627 135.897 133.189  0.00  0.00     0.013 A 
ATOM     64  C           0     132.046 136.862 131.054  0.00  0.00     0.096 A 
ATOM     65  C           0     131.989 136.964 133.853  0.00  0.00     0.061 A 
ATOM     66  C           0     131.389 137.948 133.137  0.00  0.00     0.167 A 
ATOM     67  C           0     131.411 137.913 131.725  0.00  0.00     0.212 A 
ATOM     68  F           0     130.773 138.967 133.777  0.00  0.00    -0.202 F 
ATOM     69  O           0     130.872 138.807 131.085  0.00  0.00    -0.285 OA
BRANCH  59  70
ATOM     70  O           0     135.681 130.759 131.025  0.00  0.00    -0.358 OA
ATOM     71  H           0     136.089 130.167 131.671  0.00  0.00     0.217 HD
ENDBRANCH  59  70
ENDBRANCH  45  53
ENDBRANCH  39  42
ENDBRANCH  37  38
ENDBRANCH   1  37
TORSDOF 18
ENDMDL
MODEL 2
REMARK VINA RESULT:      -8.9      0.113      3.440
REMARK  18 active torsions:
REMARK  status: ('A' for Active; 'I' for Inactive)
REMARK    1  A    between atoms: C_6  and  C_7 
REMARK    2  A    between atoms: C_7  and  O_8 
REMARK    3  A    between atoms: O_8  and  C_9 
REMARK       I    between atoms: C_9  and  N_10 
REMARK    4  A    between atoms: N_10  and  C_11 
REMARK    5  A    between atoms: C_11  and  C_12 
REMARK    6  A    between atoms: C_12  and  C_13 
REMARK    7  A    between atoms: C_13  and  C_14 
REMARK    8  A    between atoms: C_14  and  C_15 
REMARK    9  A    between atoms: C_15  and  C_16 
REMARK   10  A    between atoms: C_16  and  N_17 
REMARK       I    between atoms: N_17  and  C_18 
REMARK   11  A    between atoms: C_18  and  C_19 
REMARK   12  A    between atoms: C_22  and  C_23 
REMARK   13  A    between atoms: C_28  and  O_29 
REMARK   14  A    between atoms: C_41  and  C_42 
REMARK   15  A    between atoms: C_42  and  C_43 
REMARK   16  A    between atoms: C_43  and  O_44 
REMARK   17  A    between atoms: C_60  and  O_61 
REMARK   18  A    between atoms: C_60  and  O_62 
ROOT
ATOM      1  C           0     134.695 133.867 142.272  0.00  0.00     0.020 C 
ENDROOT
BRANCH   1   2
ATOM      2  C           0     135.606 132.761 141.739  0.00  0.00     0.002 C 
BRANCH   2   3
ATOM      3  C           0     136.690 132.451 142.774  0.00  0.00     0.002 C 
BRANCH   3   4
ATOM      4  C           0     137.652 133.637 142.876  0.00  0.00     0.020 C 
BRANCH   4   5
ATOM      5  C           0     138.994 133.158 143.434  0.00  0.00     0.125 C 
BRANCH   5   6
ATOM      6  N           0     138.860 132.898 144.870  0.00  0.00    -0.337 N 
ATOM      7  C           0     139.937 132.526 145.590  0.00  0.00     0.360 C 
ATOM      8  O           0     141.019 132.408 145.049  0.00  0.00    -0.239 OA
ATOM      9  H           0     137.997 132.992 145.301  0.00  0.00     0.164 HD
BRANCH   7  10
ATOM     10  O           0     139.814 132.287 146.910  0.00  0.00    -0.302 OA
BRANCH  10  11
ATOM     11  C           0     139.243 131.033 147.369  0.00  0.00     0.208 C 
BRANCH  11  12
ATOM     12  C           0     138.616 131.234 148.750  0.00  0.00     0.151 C 
ATOM     13  N           0     138.577 129.947 149.440  0.00  0.00    -0.218 N 
ATOM     14  C           0     137.703 128.980 148.973  0.00  0.00     0.672 C 
ATOM     15  H           0     139.147 129.775 150.206  0.00  0.00     0.178 HD
ATOM     16  N           0     137.937 127.705 149.118  0.00  0.00    -0.235 N 
ATOM     17  N           0     136.580 129.448 148.343  0.00  0.00    -0.183 N 
ATOM     18  H           0     138.745 127.409 149.566  0.00  0.00     0.174 HD
ATOM     19  H           0     137.301 127.055 148.782  0.00  0.00     0.174 HD
ATOM     20  C           0     136.149 130.844 148.245  0.00  0.00     0.217 C 
ATOM     21  C           0     135.584 128.678 147.576  0.00  0.00     0.150 C 
ATOM     22  C           0     137.241 131.848 148.578  0.00  0.00     0.180 C 
ATOM     23  C           0     135.634 131.011 146.804  0.00  0.00     0.209 C 
ATOM     24  N           0     135.067 131.130 149.199  0.00  0.00    -0.191 N 
ATOM     25  N           0     136.805 132.432 149.864  0.00  0.00    -0.216 N 
ATOM     26  C           0     135.466 132.164 150.008  0.00  0.00     0.670 C 
ATOM     27  H           0     137.363 132.916 150.492  0.00  0.00     0.178 HD
ATOM     28  N           0     134.672 132.813 150.814  0.00  0.00    -0.235 N 
ATOM     29  H           0     135.020 133.536 151.359  0.00  0.00     0.174 HD
ATOM     30  H           0     133.734 132.573 150.867  0.00  0.00     0.174 HD
ATOM     31  C           0     135.262 129.575 146.358  0.00  0.00     0.093 C 
ATOM     32  H           0     134.215 130.668 149.248  0.00  0.00     0.180 HD
BRANCH  23  33
ATOM     33  O           0     134.484 131.857 146.777  0.00  0.00    -0.362 OA
ATOM     34  H           0     134.781 132.724 146.470  0.00  0.00     0.213 HD
ENDBRANCH  23  33
BRANCH  23  35
ATOM     35  O           0     136.664 131.542 145.968  0.00  0.00    -0.362 OA
ATOM     36  H           0     137.124 132.216 146.486  0.00  0.00     0.213 HD
ENDBRANCH  23  35
ENDBRANCH  11  12
ENDBRANCH  10  11
ENDBRANCH   7  10
ENDBRANCH   5   6
ENDBRANCH   4   5
ENDBRANCH   3   4
ENDBRANCH   2   3
ENDBRANCH   1   2
BRANCH   1  37
ATOM     37  C           0     133.271 133.648 141.758  0.00  0.00     0.123 C 
BRANCH  37  38
ATOM     38  N           0     133.273 133.662 140.293  0.00  0.00    -0.357 N 
ATOM     39  C           0     133.240 134.836 139.630  0.00  0.00     0.251 C 
ATOM     40  O           0     133.209 135.882 140.248  0.00  0.00    -0.268 OA
ATOM     41  H           0     133.297 132.828 139.799  0.00  0.00     0.162 HD
BRANCH  39  42
ATOM     42  C           0     133.242 134.850 138.150  0.00  0.00     0.032 A 
ATOM     43  C           0     132.184 134.271 137.446  0.00  0.00     0.025 A 
ATOM     44  C           0     132.181 134.289 136.069  0.00  0.00    -0.036 A 
ATOM     45  C           0     133.245 134.878 135.376  0.00  0.00    -0.017 A 
ATOM     46  C           0     134.306 135.451 136.083  0.00  0.00     0.014 A 
ATOM     47  C           0     134.304 135.437 137.460  0.00  0.00     0.018 A 
BRANCH  44  48
ATOM     48  C           0     131.037 133.670 135.309  0.00  0.00     0.149 C 
BRANCH  48  49
ATOM     49  C           0     131.004 132.187 135.571  0.00  0.00     0.143 C 
ATOM     50  O           0     131.854 131.471 135.097  0.00  0.00    -0.650 OA
BRANCH  49  51
ATOM     51  O           0     130.030 131.661 136.331  0.00  0.00    -0.776 OA
ATOM     52  H           0     130.245 131.271 137.190  0.00  0.00     0.167 HD
ENDBRANCH  49  51
ENDBRANCH  48  49
ENDBRANCH  44  48
BRANCH  45  53
ATOM     53  C           0     133.246 134.891 133.901  0.00  0.00     0.001 A 
ATOM     54  C           0     132.588 135.964 133.152  0.00  0.00     0.013 A 
ATOM     55  C           0     131.934 137.009 133.820  0.00  0.00     0.060 A 
ATOM     56  C           0     132.617 135.932 131.743  0.00  0.00     0.090 A 
ATOM     57  C           0     131.327 137.997 133.101  0.00  0.00     0.150 A 
ATOM     58  F           0     130.697 139.005 133.742  0.00  0.00    -0.203 F 
ATOM     59  C           0     131.353 137.972 131.703  0.00  0.00     0.106 A 
ATOM     60  C           0     131.994 136.947 131.029  0.00  0.00     0.077 A 
ATOM     61  O           0     133.245 134.929 131.094  0.00  0.00    -0.309 OA
ATOM     62  C           0     133.863 133.923 131.746  0.00  0.00     0.091 A 
ATOM     63  C           0     133.888 133.876 133.160  0.00  0.00     0.013 A 
ATOM     64  C           0     134.492 132.927 131.025  0.00  0.00     0.096 A 
ATOM     65  C           0     134.545 132.819 133.824  0.00  0.00     0.061 A 
ATOM     66  C           0     135.164 131.848 133.107  0.00  0.00     0.167 A 
ATOM     67  C           0     135.145 131.886 131.695  0.00  0.00     0.212 A 
ATOM     68  F           0     135.798 130.839 133.746  0.00  0.00    -0.202 F 
ATOM     69  O           0     135.702 131.003 131.054  0.00  0.00    -0.285 OA
BRANCH  59  70
ATOM     70  O           0     130.745 138.961 131.001  0.00  0.00    -0.358 OA
ATOM     71  H           0     130.181 138.531 130.344  0.00  0.00     0.217 HD
ENDBRANCH  59  70
ENDBRANCH  45  53
ENDBRANCH  39  42
ENDBRANCH  37  38
ENDBRANCH   1  37
TORSDOF 18
ENDMDL
MODEL 3
REMARK VINA RESULT:      -8.3      4.660     15.007
REMARK  18 active torsions:
REMARK  status: ('A' for Active; 'I' for Inactive)
REMARK    1  A    between atoms: C_6  and  C_7 
REMARK    2  A    between atoms: C_7  and  O_8 
REMARK    3  A    between atoms: O_8  and  C_9 
REMARK       I    between atoms: C_9  and  N_10 
REMARK    4  A    between atoms: N_10  and  C_11 
REMARK    5  A    between atoms: C_11  and  C_12 
REMARK    6  A    between atoms: C_12  and  C_13 
REMARK    7  A    between atoms: C_13  and  C_14 
REMARK    8  A    between atoms: C_14  and  C_15 
REMARK    9  A    between atoms: C_15  and  C_16 
REMARK   10  A    between atoms: C_16  and  N_17 
REMARK       I    between atoms: N_17  and  C_18 
REMARK   11  A    between atoms: C_18  and  C_19 
REMARK   12  A    between atoms: C_22  and  C_23 
REMARK   13  A    between atoms: C_28  and  O_29 
REMARK   14  A    between atoms: C_41  and  C_42 
REMARK   15  A    between atoms: C_42  and  C_43 
REMARK   16  A    between atoms: C_43  and  O_44 
REMARK   17  A    between atoms: C_60  and  O_61 
REMARK   18  A    between atoms: C_60  and  O_62 
ROOT
ATOM      1  C           0     132.305 133.135 140.585  0.00  0.00     0.020 C 
ENDROOT
BRANCH   1   2
ATOM      2  C           0     132.089 133.894 139.276  0.00  0.00     0.002 C 
BRANCH   2   3
ATOM      3  C           0     133.322 134.747 138.971  0.00  0.00     0.002 C 
BRANCH   3   4
ATOM      4  C           0     133.174 135.380 137.586  0.00  0.00     0.020 C 
BRANCH   4   5
ATOM      5  C           0     134.519 135.331 136.857  0.00  0.00     0.125 C 
BRANCH   5   6
ATOM      6  N           0     134.294 135.402 135.411  0.00  0.00    -0.337 N 
ATOM      7  C           0     134.401 134.290 134.656  0.00  0.00     0.360 C 
ATOM      8  O           0     134.684 133.229 135.176  0.00  0.00    -0.239 OA
ATOM      9  H           0     134.068 136.250 134.996  0.00  0.00     0.164 HD
BRANCH   7  10
ATOM     10  O           0     134.194 134.356 133.327  0.00  0.00    -0.302 OA
BRANCH  10  11
ATOM     11  C           0     133.966 133.140 132.567  0.00  0.00     0.208 C 
BRANCH  11  12
ATOM     12  C           0     132.748 133.327 131.660  0.00  0.00     0.151 C 
ATOM     13  N           0     132.316 134.720 131.732  0.00  0.00    -0.218 N 
ATOM     14  C           0     131.744 135.167 132.911  0.00  0.00     0.672 C 
ATOM     15  H           0     132.425 135.316 130.975  0.00  0.00     0.178 HD
ATOM     16  N           0     131.819 136.414 133.289  0.00  0.00    -0.235 N 
ATOM     17  N           0     131.101 134.216 133.659  0.00  0.00    -0.183 N 
ATOM     18  H           0     132.286 137.060 132.737  0.00  0.00     0.174 HD
ATOM     19  H           0     131.404 136.694 134.120  0.00  0.00     0.174 HD
ATOM     20  C           0     130.838 132.829 133.271  0.00  0.00     0.217 C 
ATOM     21  C           0     130.581 134.343 135.033  0.00  0.00     0.150 C 
ATOM     22  C           0     131.666 132.355 132.088  0.00  0.00     0.180 C 
ATOM     23  C           0     131.109 131.994 134.535  0.00  0.00     0.209 C 
ATOM     24  N           0     129.439 132.657 132.849  0.00  0.00    -0.191 N 
ATOM     25  N           0     130.679 132.215 130.997  0.00  0.00    -0.216 N 
ATOM     26  C           0     129.433 132.155 131.571  0.00  0.00     0.670 C 
ATOM     27  H           0     130.875 132.174 130.049  0.00  0.00     0.178 HD
ATOM     28  N           0     128.374 131.680 130.976  0.00  0.00    -0.235 N 
ATOM     29  H           0     128.439 131.340 130.070  0.00  0.00     0.174 HD
ATOM     30  H           0     127.522 131.666 131.439  0.00  0.00     0.174 HD
ATOM     31  C           0     130.942 132.998 135.704  0.00  0.00     0.093 C 
ATOM     32  H           0     128.655 132.860 133.383  0.00  0.00     0.180 HD
BRANCH  23  33
ATOM     33  O           0     130.161 130.932 134.649  0.00  0.00    -0.362 OA
ATOM     34  H           0     130.376 130.452 135.460  0.00  0.00     0.213 HD
ENDBRANCH  23  33
BRANCH  23  35
ATOM     35  O           0     132.441 131.476 134.510  0.00  0.00    -0.362 OA
ATOM     36  H           0     132.386 130.586 134.134  0.00  0.00     0.213 HD
ENDBRANCH  23  35
ENDBRANCH  11  12
ENDBRANCH  10  11
ENDBRANCH   7  10
ENDBRANCH   5   6
ENDBRANCH   4   5
ENDBRANCH   3   4
ENDBRANCH   2   3
ENDBRANCH   1   2
BRANCH   1  37
ATOM     37  C           0     133.496 133.735 141.333  0.00  0.00     0.123 C 
BRANCH  37  38
ATOM     38  N           0     133.769 132.943 142.535  0.00  0.00    -0.357 N 
ATOM     39  C           0     134.811 133.260 143.329  0.00  0.00     0.251 C 
ATOM     40  O           0     135.525 134.203 143.048  0.00  0.00    -0.268 OA
ATOM     41  H           0     133.200 132.190 142.759  0.00  0.00     0.162 HD
BRANCH  39  42
ATOM     42  C           0     135.086 132.459 144.543  0.00  0.00     0.032 A 
ATOM     43  C           0     135.241 133.095 145.777  0.00  0.00     0.025 A 
ATOM     44  C           0     135.491 132.351 146.908  0.00  0.00    -0.036 A 
ATOM     45  C           0     135.601 130.959 146.819  0.00  0.00    -0.017 A 
ATOM     46  C           0     135.452 130.325 145.581  0.00  0.00     0.014 A 
ATOM     47  C           0     135.196 131.071 144.452  0.00  0.00     0.018 A 
BRANCH  44  48
ATOM     48  C           0     135.653 133.036 148.241  0.00  0.00     0.149 C 
BRANCH  48  49
ATOM     49  C           0     136.789 134.022 148.164  0.00  0.00     0.143 C 
ATOM     50  O           0     137.924 133.628 148.039  0.00  0.00    -0.650 OA
BRANCH  49  51
ATOM     51  O           0     136.540 135.340 148.235  0.00  0.00    -0.776 OA
ATOM     52  H           0     136.393 135.848 147.425  0.00  0.00     0.167 HD
ENDBRANCH  49  51
ENDBRANCH  48  49
ENDBRANCH  44  48
BRANCH  45  53
ATOM     53  C           0     135.876 130.162 148.029  0.00  0.00     0.001 A 
ATOM     54  C           0     137.248 129.857 148.442  0.00  0.00     0.013 A 
ATOM     55  C           0     138.341 130.316 147.693  0.00  0.00     0.060 A 
ATOM     56  C           0     137.458 129.092 149.607  0.00  0.00     0.090 A 
ATOM     57  C           0     139.610 130.019 148.097  0.00  0.00     0.150 A 
ATOM     58  F           0     140.665 130.460 147.377  0.00  0.00    -0.203 F 
ATOM     59  C           0     139.825 129.261 149.252  0.00  0.00     0.106 A 
ATOM     60  C           0     138.757 128.801 150.002  0.00  0.00     0.077 A 
ATOM     61  O           0     136.410 128.648 150.332  0.00  0.00    -0.309 OA
ATOM     62  C           0     135.132 128.906 149.987  0.00  0.00     0.091 A 
ATOM     63  C           0     134.826 129.671 148.836  0.00  0.00     0.013 A 
ATOM     64  C           0     134.102 128.427 150.773  0.00  0.00     0.096 A 
ATOM     65  C           0     133.485 129.935 148.494  0.00  0.00     0.061 A 
ATOM     66  C           0     132.480 129.465 149.275  0.00  0.00     0.167 A 
ATOM     67  C           0     132.774 128.701 150.427  0.00  0.00     0.212 A 
ATOM     68  F           0     131.195 129.725 148.949  0.00  0.00    -0.202 F 
ATOM     69  O           0     131.862 128.275 151.125  0.00  0.00    -0.285 OA
BRANCH  59  70
ATOM     70  O           0     141.093 128.974 149.642  0.00  0.00    -0.358 OA
ATOM     71  H           0     141.603 129.792 149.557  0.00  0.00     0.217 HD
ENDBRANCH  59  70
ENDBRANCH  45  53
ENDBRANCH  39  42
ENDBRANCH  37  38
ENDBRANCH   1  37
TORSDOF 18
ENDMDL
MODEL 4
REMARK VINA RESULT:      -8.1      1.350      2.356
REMARK  18 active torsions:
REMARK  status: ('A' for Active; 'I' for Inactive)
REMARK    1  A    between atoms: C_6  and  C_7 
REMARK    2  A    between atoms: C_7  and  O_8 
REMARK    3  A    between atoms: O_8  and  C_9 
REMARK       I    between atoms: C_9  and  N_10 
REMARK    4  A    between atoms: N_10  and  C_11 
REMARK    5  A    between atoms: C_11  and  C_12 
REMARK    6  A    between atoms: C_12  and  C_13 
REMARK    7  A    between atoms: C_13  and  C_14 
REMARK    8  A    between atoms: C_14  and  C_15 
REMARK    9  A    between atoms: C_15  and  C_16 
REMARK   10  A    between atoms: C_16  and  N_17 
REMARK       I    between atoms: N_17  and  C_18 
REMARK   11  A    between atoms: C_18  and  C_19 
REMARK   12  A    between atoms: C_22  and  C_23 
REMARK   13  A    between atoms: C_28  and  O_29 
REMARK   14  A    between atoms: C_41  and  C_42 
REMARK   15  A    between atoms: C_42  and  C_43 
REMARK   16  A    between atoms: C_43  and  O_44 
REMARK   17  A    between atoms: C_60  and  O_61 
REMARK   18  A    between atoms: C_60  and  O_62 
ROOT
ATOM      1  C           0     133.366 133.411 142.108  0.00  0.00     0.020 C 
ENDROOT
BRANCH   1   2
ATOM      2  C           0     133.897 131.983 142.236  0.00  0.00     0.002 C 
BRANCH   2   3
ATOM      3  C           0     135.153 131.982 143.110  0.00  0.00     0.002 C 
BRANCH   3   4
ATOM      4  C           0     136.234 132.842 142.451  0.00  0.00     0.020 C 
BRANCH   4   5
ATOM      5  C           0     137.537 132.720 143.243  0.00  0.00     0.125 C 
BRANCH   5   6
ATOM      6  N           0     137.371 133.351 144.555  0.00  0.00    -0.337 N 
ATOM      7  C           0     138.002 132.842 145.632  0.00  0.00     0.360 C 
ATOM      8  O           0     138.708 131.860 145.515  0.00  0.00    -0.239 OA
ATOM      9  H           0     136.807 134.135 144.648  0.00  0.00     0.164 HD
BRANCH   7  10
ATOM     10  O           0     137.849 133.422 146.838  0.00  0.00    -0.302 OA
BRANCH  10  11
ATOM     11  C           0     137.292 132.663 147.943  0.00  0.00     0.208 C 
BRANCH  11  12
ATOM     12  C           0     135.955 132.051 147.519  0.00  0.00     0.151 C 
ATOM     13  N           0     134.924 132.471 148.464  0.00  0.00    -0.218 N 
ATOM     14  C           0     134.968 131.961 149.750  0.00  0.00     0.672 C 
ATOM     15  H           0     134.226 133.090 148.197  0.00  0.00     0.178 HD
ATOM     16  N           0     134.493 132.617 150.773  0.00  0.00    -0.235 N 
ATOM     17  N           0     135.547 130.726 149.881  0.00  0.00    -0.183 N 
ATOM     18  H           0     134.094 133.491 150.644  0.00  0.00     0.174 HD
ATOM     19  H           0     134.537 132.228 151.660  0.00  0.00     0.174 HD
ATOM     20  C           0     135.985 129.846 148.796  0.00  0.00     0.217 C 
ATOM     21  C           0     135.914 130.025 151.125  0.00  0.00     0.150 C 
ATOM     22  C           0     136.108 130.544 147.451  0.00  0.00     0.180 C 
ATOM     23  C           0     137.327 129.258 149.265  0.00  0.00     0.209 C 
ATOM     24  N           0     135.015 128.762 148.573  0.00  0.00    -0.191 N 
ATOM     25  N           0     135.000 129.978 146.655  0.00  0.00    -0.216 N 
ATOM     26  C           0     134.603 128.814 147.265  0.00  0.00     0.670 C 
ATOM     27  H           0     134.620 130.359 145.848  0.00  0.00     0.178 HD
ATOM     28  N           0     133.919 127.873 146.675  0.00  0.00    -0.235 N 
ATOM     29  H           0     133.659 127.973 145.745  0.00  0.00     0.174 HD
ATOM     30  H           0     133.670 127.074 147.165  0.00  0.00     0.174 HD
ATOM     31  C           0     137.284 129.379 150.810  0.00  0.00     0.093 C 
ATOM     32  H           0     134.719 128.119 149.237  0.00  0.00     0.180 HD
BRANCH  23  33
ATOM     33  O           0     137.440 127.889 148.874  0.00  0.00    -0.362 OA
ATOM     34  H           0     137.093 127.826 147.974  0.00  0.00     0.213 HD
ENDBRANCH  23  33
BRANCH  23  35
ATOM     35  O           0     138.414 130.021 148.736  0.00  0.00    -0.362 OA
ATOM     36  H           0     138.540 130.774 149.329  0.00  0.00     0.213 HD
ENDBRANCH  23  35
ENDBRANCH  11  12
ENDBRANCH  10  11
ENDBRANCH   7  10
ENDBRANCH   5   6
ENDBRANCH   4   5
ENDBRANCH   3   4
ENDBRANCH   2   3
ENDBRANCH   1   2
BRANCH   1  37
ATOM     37  C           0     131.990 133.386 141.442  0.00  0.00     0.123 C 
BRANCH  37  38
ATOM     38  N           0     132.149 133.471 139.988  0.00  0.00    -0.357 N 
ATOM     39  C           0     132.776 134.531 139.439  0.00  0.00     0.251 C 
ATOM     40  O           0     133.209 135.416 140.151  0.00  0.00    -0.268 OA
ATOM     41  H           0     131.802 132.766 139.420  0.00  0.00     0.162 HD
BRANCH  39  42
ATOM     42  C           0     132.936 134.617 137.971  0.00  0.00     0.032 A 
ATOM     43  C           0     131.987 134.031 137.130  0.00  0.00     0.025 A 
ATOM     44  C           0     132.132 134.116 135.763  0.00  0.00    -0.036 A 
ATOM     45  C           0     133.236 134.779 135.217  0.00  0.00    -0.017 A 
ATOM     46  C           0     134.188 135.360 136.061  0.00  0.00     0.014 A 
ATOM     47  C           0     134.039 135.279 137.427  0.00  0.00     0.018 A 
BRANCH  44  48
ATOM     48  C           0     131.105 133.489 134.856  0.00  0.00     0.149 C 
BRANCH  48  49
ATOM     49  C           0     131.051 132.004 135.108  0.00  0.00     0.143 C 
ATOM     50  O           0     131.875 131.277 134.606  0.00  0.00    -0.650 OA
BRANCH  49  51
ATOM     51  O           0     130.089 131.490 135.890  0.00  0.00    -0.776 OA
ATOM     52  H           0     130.312 131.138 136.762  0.00  0.00     0.167 HD
ENDBRANCH  49  51
ENDBRANCH  48  49
ENDBRANCH  44  48
BRANCH  45  53
ATOM     53  C           0     133.396 134.864 133.753  0.00  0.00     0.001 A 
ATOM     54  C           0     134.133 133.841 133.010  0.00  0.00     0.013 A 
ATOM     55  C           0     134.713 132.750 133.673  0.00  0.00     0.060 A 
ATOM     56  C           0     134.257 133.967 131.611  0.00  0.00     0.090 A 
ATOM     57  C           0     135.396 131.809 132.959  0.00  0.00     0.150 A 
ATOM     58  F           0     135.954 130.756 133.596  0.00  0.00    -0.203 F 
ATOM     59  C           0     135.522 131.928 131.572  0.00  0.00     0.106 A 
ATOM     60  C           0     134.956 132.999 130.903  0.00  0.00     0.077 A 
ATOM     61  O           0     133.703 135.015 130.967  0.00  0.00    -0.309 OA
ATOM     62  C           0     133.016 135.978 131.614  0.00  0.00     0.091 A 
ATOM     63  C           0     132.836 135.931 133.018  0.00  0.00     0.013 A 
ATOM     64  C           0     132.467 137.025 130.898  0.00  0.00     0.096 A 
ATOM     65  C           0     132.110 136.944 133.676  0.00  0.00     0.061 A 
ATOM     66  C           0     131.570 137.965 132.963  0.00  0.00     0.167 A 
ATOM     67  C           0     131.743 138.022 131.562  0.00  0.00     0.212 A 
ATOM     68  F           0     130.870 138.932 133.595  0.00  0.00    -0.202 F 
ATOM     69  O           0     131.258 138.949 130.925  0.00  0.00    -0.285 OA
BRANCH  59  70
ATOM     70  O           0     136.204 130.984 130.875  0.00  0.00    -0.358 OA
ATOM     71  H           0     135.581 130.599 130.243  0.00  0.00     0.217 HD
ENDBRANCH  59  70
ENDBRANCH  45  53
ENDBRANCH  39  42
ENDBRANCH  37  38
ENDBRANCH   1  37
TORSDOF 18
ENDMDL
MODEL 5
REMARK VINA RESULT:      -7.7      1.462      4.182
REMARK  18 active torsions:
REMARK  status: ('A' for Active; 'I' for Inactive)
REMARK    1  A    between atoms: C_6  and  C_7 
REMARK    2  A    between atoms: C_7  and  O_8 
REMARK    3  A    between atoms: O_8  and  C_9 
REMARK       I    between atoms: C_9  and  N_10 
REMARK    4  A    between atoms: N_10  and  C_11 
REMARK    5  A    between atoms: C_11  and  C_12 
REMARK    6  A    between atoms: C_12  and  C_13 
REMARK    7  A    between atoms: C_13  and  C_14 
REMARK    8  A    between atoms: C_14  and  C_15 
REMARK    9  A    between atoms: C_15  and  C_16 
REMARK   10  A    between atoms: C_16  and  N_17 
REMARK       I    between atoms: N_17  and  C_18 
REMARK   11  A    between atoms: C_18  and  C_19 
REMARK   12  A    between atoms: C_22  and  C_23 
REMARK   13  A    between atoms: C_28  and  O_29 
REMARK   14  A    between atoms: C_41  and  C_42 
REMARK   15  A    between atoms: C_42  and  C_43 
REMARK   16  A    between atoms: C_43  and  O_44 
REMARK   17  A    between atoms: C_60  and  O_61 
REMARK   18  A    between atoms: C_60  and  O_62 
ROOT
ATOM      1  C           0     133.087 133.605 142.075  0.00  0.00     0.020 C 
ENDROOT
BRANCH   1   2
ATOM      2  C           0     134.130 132.488 142.126  0.00  0.00     0.002 C 
BRANCH   2   3
ATOM      3  C           0     135.198 132.836 143.165  0.00  0.00     0.002 C 
BRANCH   3   4
ATOM      4  C           0     136.437 133.390 142.457  0.00  0.00     0.020 C 
BRANCH   4   5
ATOM      5  C           0     137.697 132.837 143.126  0.00  0.00     0.125 C 
BRANCH   5   6
ATOM      6  N           0     137.757 133.302 144.514  0.00  0.00    -0.337 N 
ATOM      7  C           0     138.136 132.456 145.492  0.00  0.00     0.360 C 
ATOM      8  O           0     138.428 131.308 145.223  0.00  0.00    -0.239 OA
ATOM      9  H           0     137.524 134.219 144.728  0.00  0.00     0.164 HD
BRANCH   7  10
ATOM     10  O           0     138.191 132.884 146.768  0.00  0.00    -0.302 OA
BRANCH  10  11
ATOM     11  C           0     137.540 132.121 147.817  0.00  0.00     0.208 C 
BRANCH  11  12
ATOM     12  C           0     136.133 131.728 147.365  0.00  0.00     0.151 C 
ATOM     13  N           0     135.158 132.422 148.203  0.00  0.00    -0.218 N 
ATOM     14  C           0     135.046 132.042 149.529  0.00  0.00     0.672 C 
ATOM     15  H           0     134.604 133.131 147.840  0.00  0.00     0.178 HD
ATOM     16  N           0     134.659 132.871 150.459  0.00  0.00    -0.235 N 
ATOM     17  N           0     135.372 130.740 149.804  0.00  0.00    -0.183 N 
ATOM     18  H           0     134.439 133.788 150.229  0.00  0.00     0.174 HD
ATOM     19  H           0     134.587 132.569 151.378  0.00  0.00     0.174 HD
ATOM     20  C           0     135.684 129.692 148.830  0.00  0.00     0.217 C 
ATOM     21  C           0     135.543 130.108 151.125  0.00  0.00     0.150 C 
ATOM     22  C           0     135.999 130.220 147.439  0.00  0.00     0.180 C 
ATOM     23  C           0     136.867 128.914 149.432  0.00  0.00     0.209 C 
ATOM     24  N           0     134.537 128.790 148.642  0.00  0.00    -0.191 N 
ATOM     25  N           0     134.840 129.794 146.627  0.00  0.00    -0.216 N 
ATOM     26  C           0     134.202 128.789 147.311  0.00  0.00     0.670 C 
ATOM     27  H           0     134.577 130.158 145.768  0.00  0.00     0.178 HD
ATOM     28  N           0     133.378 127.939 146.763  0.00  0.00    -0.235 N 
ATOM     29  H           0     133.185 127.993 145.814  0.00  0.00     0.174 HD
ATOM     30  H           0     132.960 127.250 147.305  0.00  0.00     0.174 HD
ATOM     31  C           0     136.777 129.192 150.954  0.00  0.00     0.093 C 
ATOM     32  H           0     134.094 128.280 149.339  0.00  0.00     0.180 HD
BRANCH  23  33
ATOM     33  O           0     136.735 127.516 149.171  0.00  0.00    -0.362 OA
ATOM     34  H           0     137.335 127.311 148.440  0.00  0.00     0.213 HD
ENDBRANCH  23  33
BRANCH  23  35
ATOM     35  O           0     138.102 129.407 148.908  0.00  0.00    -0.362 OA
ATOM     36  H           0     137.888 130.182 148.371  0.00  0.00     0.213 HD
ENDBRANCH  23  35
ENDBRANCH  11  12
ENDBRANCH  10  11
ENDBRANCH   7  10
ENDBRANCH   5   6
ENDBRANCH   4   5
ENDBRANCH   3   4
ENDBRANCH   2   3
ENDBRANCH   1   2
BRANCH   1  37
ATOM     37  C           0     131.844 133.109 141.334  0.00  0.00     0.123 C 
BRANCH  37  38
ATOM     38  N           0     132.038 133.269 139.891  0.00  0.00    -0.357 N 
ATOM     39  C           0     132.572 134.408 139.405  0.00  0.00     0.251 C 
ATOM     40  O           0     132.892 135.302 140.164  0.00  0.00    -0.268 OA
ATOM     41  H           0     131.783 132.557 139.284  0.00  0.00     0.162 HD
BRANCH  39  42
ATOM     42  C           0     132.768 134.570 137.947  0.00  0.00     0.032 A 
ATOM     43  C           0     131.791 134.116 137.057  0.00  0.00     0.025 A 
ATOM     44  C           0     131.970 134.272 135.701  0.00  0.00    -0.036 A 
ATOM     45  C           0     133.136 134.874 135.214  0.00  0.00    -0.017 A 
ATOM     46  C           0     134.115 135.322 136.106  0.00  0.00     0.014 A 
ATOM     47  C           0     133.932 135.170 137.463  0.00  0.00     0.018 A 
BRANCH  44  48
ATOM     48  C           0     130.914 133.788 134.741  0.00  0.00     0.149 C 
BRANCH  48  49
ATOM     49  C           0     130.957 132.284 134.662  0.00  0.00     0.143 C 
ATOM     50  O           0     131.468 131.744 133.709  0.00  0.00    -0.650 OA
BRANCH  49  51
ATOM     51  O           0     130.429 131.545 135.650  0.00  0.00    -0.776 OA
ATOM     52  H           0     130.597 130.593 135.683  0.00  0.00     0.167 HD
ENDBRANCH  49  51
ENDBRANCH  48  49
ENDBRANCH  44  48
BRANCH  45  53
ATOM     53  C           0     133.331 135.035 133.761  0.00  0.00     0.001 A 
ATOM     54  C           0     132.785 136.191 133.045  0.00  0.00     0.013 A 
ATOM     55  C           0     132.057 137.178 133.726  0.00  0.00     0.060 A 
ATOM     56  C           0     132.999 136.300 131.656  0.00  0.00     0.090 A 
ATOM     57  C           0     131.558 138.245 133.038  0.00  0.00     0.150 A 
ATOM     58  F           0     130.857 139.198 133.692  0.00  0.00    -0.203 F 
ATOM     59  C           0     131.768 138.359 131.661  0.00  0.00     0.106 A 
ATOM     60  C           0     132.483 137.393 130.975  0.00  0.00     0.077 A 
ATOM     61  O           0     133.698 135.353 130.996  0.00  0.00    -0.309 OA
ATOM     62  C           0     134.217 134.274 131.616  0.00  0.00     0.091 A 
ATOM     63  C           0     134.056 134.085 133.010  0.00  0.00     0.013 A 
ATOM     64  C           0     134.927 133.341 130.886  0.00  0.00     0.096 A 
ATOM     65  C           0     134.611 132.954 133.643  0.00  0.00     0.061 A 
ATOM     66  C           0     135.312 132.046 132.917  0.00  0.00     0.167 A 
ATOM     67  C           0     135.478 132.225 131.526  0.00  0.00     0.212 A 
ATOM     68  F           0     135.848 130.965 133.527  0.00  0.00    -0.202 F 
ATOM     69  O           0     136.107 131.399 130.876  0.00  0.00    -0.285 OA
BRANCH  59  70
ATOM     70  O           0     131.265 139.427 130.990  0.00  0.00    -0.358 OA
ATOM     71  H           0     131.897 139.639 130.289  0.00  0.00     0.217 HD
ENDBRANCH  59  70
ENDBRANCH  45  53
ENDBRANCH  39  42
ENDBRANCH  37  38
ENDBRANCH   1  37
TORSDOF 18
ENDMDL
MODEL 6
REMARK VINA RESULT:      -7.4      2.349      4.567
REMARK  18 active torsions:
REMARK  status: ('A' for Active; 'I' for Inactive)
REMARK    1  A    between atoms: C_6  and  C_7 
REMARK    2  A    between atoms: C_7  and  O_8 
REMARK    3  A    between atoms: O_8  and  C_9 
REMARK       I    between atoms: C_9  and  N_10 
REMARK    4  A    between atoms: N_10  and  C_11 
REMARK    5  A    between atoms: C_11  and  C_12 
REMARK    6  A    between atoms: C_12  and  C_13 
REMARK    7  A    between atoms: C_13  and  C_14 
REMARK    8  A    between atoms: C_14  and  C_15 
REMARK    9  A    between atoms: C_15  and  C_16 
REMARK   10  A    between atoms: C_16  and  N_17 
REMARK       I    between atoms: N_17  and  C_18 
REMARK   11  A    between atoms: C_18  and  C_19 
REMARK   12  A    between atoms: C_22  and  C_23 
REMARK   13  A    between atoms: C_28  and  O_29 
REMARK   14  A    between atoms: C_41  and  C_42 
REMARK   15  A    between atoms: C_42  and  C_43 
REMARK   16  A    between atoms: C_43  and  O_44 
REMARK   17  A    between atoms: C_60  and  O_61 
REMARK   18  A    between atoms: C_60  and  O_62 
ROOT
ATOM      1  C           0     133.596 133.942 142.125  0.00  0.00     0.020 C 
ENDROOT
BRANCH   1   2
ATOM      2  C           0     134.632 132.846 141.868  0.00  0.00     0.002 C 
BRANCH   2   3
ATOM      3  C           0     134.184 131.551 142.548  0.00  0.00     0.002 C 
BRANCH   3   4
ATOM      4  C           0     135.345 130.973 143.360  0.00  0.00     0.020 C 
BRANCH   4   5
ATOM      5  C           0     136.595 131.827 143.141  0.00  0.00     0.125 C 
BRANCH   5   6
ATOM      6  N           0     137.294 132.006 144.417  0.00  0.00    -0.337 N 
ATOM      7  C           0     138.435 132.721 144.466  0.00  0.00     0.360 C 
ATOM      8  O           0     138.886 133.217 143.452  0.00  0.00    -0.239 OA
ATOM      9  H           0     136.934 131.610 145.226  0.00  0.00     0.164 HD
BRANCH   7  10
ATOM     10  O           0     139.077 132.885 145.638  0.00  0.00    -0.302 OA
BRANCH  10  11
ATOM     11  C           0     138.883 131.926 146.711  0.00  0.00     0.208 C 
BRANCH  11  12
ATOM     12  C           0     138.100 132.584 147.849  0.00  0.00     0.151 C 
ATOM     13  N           0     138.884 132.490 149.077  0.00  0.00    -0.218 N 
ATOM     14  C           0     139.048 131.243 149.655  0.00  0.00     0.672 C 
ATOM     15  H           0     139.280 133.280 149.478  0.00  0.00     0.178 HD
ATOM     16  N           0     140.095 130.943 150.373  0.00  0.00    -0.235 N 
ATOM     17  N           0     138.043 130.342 149.420  0.00  0.00    -0.183 N 
ATOM     18  H           0     140.790 131.604 150.515  0.00  0.00     0.174 HD
ATOM     19  H           0     140.176 130.060 150.767  0.00  0.00     0.174 HD
ATOM     20  C           0     136.768 130.608 148.752  0.00  0.00     0.217 C 
ATOM     21  C           0     138.029 128.900 149.727  0.00  0.00     0.150 C 
ATOM     22  C           0     136.747 131.909 147.965  0.00  0.00     0.180 C 
ATOM     23  C           0     136.517 129.387 147.850  0.00  0.00     0.209 C 
ATOM     24  N           0     135.677 130.740 149.731  0.00  0.00    -0.191 N 
ATOM     25  N           0     135.836 132.777 148.739  0.00  0.00    -0.216 N 
ATOM     26  C           0     135.088 131.968 149.559  0.00  0.00     0.670 C 
ATOM     27  H           0     135.776 133.743 148.679  0.00  0.00     0.178 HD
ATOM     28  N           0     133.959 132.322 150.106  0.00  0.00    -0.235 N 
ATOM     29  H           0     133.597 133.207 149.943  0.00  0.00     0.174 HD
ATOM     30  H           0     133.480 131.700 150.676  0.00  0.00     0.174 HD
ATOM     31  C           0     137.355 128.253 148.494  0.00  0.00     0.093 C 
ATOM     32  H           0     135.417 130.072 150.384  0.00  0.00     0.180 HD
BRANCH  23  33
ATOM     33  O           0     135.131 129.042 147.845  0.00  0.00    -0.362 OA
ATOM     34  H           0     134.907 128.799 146.937  0.00  0.00     0.213 HD
ENDBRANCH  23  33
BRANCH  23  35
ATOM     35  O           0     136.972 129.649 146.521  0.00  0.00    -0.362 OA
ATOM     36  H           0     137.805 129.170 146.412  0.00  0.00     0.213 HD
ENDBRANCH  23  35
ENDBRANCH  11  12
ENDBRANCH  10  11
ENDBRANCH   7  10
ENDBRANCH   5   6
ENDBRANCH   4   5
ENDBRANCH   3   4
ENDBRANCH   2   3
ENDBRANCH   1   2
BRANCH   1  37
ATOM     37  C           0     133.631 134.955 140.980  0.00  0.00     0.123 C 
BRANCH  37  38
ATOM     38  N           0     133.255 134.292 139.728  0.00  0.00    -0.357 N 
ATOM     39  C           0     132.898 135.027 138.657  0.00  0.00     0.251 C 
ATOM     40  O           0     132.888 136.241 138.728  0.00  0.00    -0.268 OA
ATOM     41  H           0     133.263 133.324 139.671  0.00  0.00     0.162 HD
BRANCH  39  42
ATOM     42  C           0     132.519 134.358 137.393  0.00  0.00     0.032 A 
ATOM     43  C           0     133.111 134.751 136.190  0.00  0.00     0.025 A 
ATOM     44  C           0     132.764 134.125 135.014  0.00  0.00    -0.036 A 
ATOM     45  C           0     131.810 133.101 135.023  0.00  0.00    -0.017 A 
ATOM     46  C           0     131.215 132.712 136.227  0.00  0.00     0.014 A 
ATOM     47  C           0     131.567 133.336 137.403  0.00  0.00     0.018 A 
BRANCH  44  48
ATOM     48  C           0     133.406 134.546 133.717  0.00  0.00     0.149 C 
BRANCH  48  49
ATOM     49  C           0     132.943 135.933 133.355  0.00  0.00     0.143 C 
ATOM     50  O           0     131.766 136.204 133.385  0.00  0.00    -0.650 OA
BRANCH  49  51
ATOM     51  O           0     133.839 136.867 132.998  0.00  0.00    -0.776 OA
ATOM     52  H           0     134.785 136.686 133.081  0.00  0.00     0.167 HD
ENDBRANCH  49  51
ENDBRANCH  48  49
ENDBRANCH  44  48
BRANCH  45  53
ATOM     53  C           0     131.432 132.434 133.763  0.00  0.00     0.001 A 
ATOM     54  C           0     130.242 132.843 133.014  0.00  0.00     0.013 A 
ATOM     55  C           0     129.425 133.883 133.479  0.00  0.00     0.060 A 
ATOM     56  C           0     129.924 132.175 131.815  0.00  0.00     0.090 A 
ATOM     57  C           0     128.320 134.247 132.766  0.00  0.00     0.150 A 
ATOM     58  F           0     127.531 135.250 133.212  0.00  0.00    -0.203 F 
ATOM     59  C           0     128.000 133.589 131.575  0.00  0.00     0.106 A 
ATOM     60  C           0     128.796 132.560 131.103  0.00  0.00     0.077 A 
ATOM     61  O           0     130.706 131.173 131.362  0.00  0.00    -0.309 OA
ATOM     62  C           0     131.811 130.766 132.020  0.00  0.00     0.091 A 
ATOM     63  C           0     132.210 131.383 133.230  0.00  0.00     0.013 A 
ATOM     64  C           0     132.574 129.737 131.503  0.00  0.00     0.096 A 
ATOM     65  C           0     133.371 130.947 133.901  0.00  0.00     0.061 A 
ATOM     66  C           0     134.116 129.939 133.382  0.00  0.00     0.167 A 
ATOM     67  C           0     133.727 129.316 132.175  0.00  0.00     0.212 A 
ATOM     68  F           0     135.232 129.527 134.025  0.00  0.00    -0.202 F 
ATOM     69  O           0     134.402 128.404 131.715  0.00  0.00    -0.285 OA
BRANCH  59  70
ATOM     70  O           0     126.899 133.962 130.875  0.00  0.00    -0.358 OA
ATOM     71  H           0     126.596 133.180 130.393  0.00  0.00     0.217 HD
ENDBRANCH  59  70
ENDBRANCH  45  53
ENDBRANCH  39  42
ENDBRANCH  37  38
ENDBRANCH   1  37
TORSDOF 18
ENDMDL
MODEL 7
REMARK VINA RESULT:      -7.2      2.392      3.096
REMARK  18 active torsions:
REMARK  status: ('A' for Active; 'I' for Inactive)
REMARK    1  A    between atoms: C_6  and  C_7 
REMARK    2  A    between atoms: C_7  and  O_8 
REMARK    3  A    between atoms: O_8  and  C_9 
REMARK       I    between atoms: C_9  and  N_10 
REMARK    4  A    between atoms: N_10  and  C_11 
REMARK    5  A    between atoms: C_11  and  C_12 
REMARK    6  A    between atoms: C_12  and  C_13 
REMARK    7  A    between atoms: C_13  and  C_14 
REMARK    8  A    between atoms: C_14  and  C_15 
REMARK    9  A    between atoms: C_15  and  C_16 
REMARK   10  A    between atoms: C_16  and  N_17 
REMARK       I    between atoms: N_17  and  C_18 
REMARK   11  A    between atoms: C_18  and  C_19 
REMARK   12  A    between atoms: C_22  and  C_23 
REMARK   13  A    between atoms: C_28  and  O_29 
REMARK   14  A    between atoms: C_41  and  C_42 
REMARK   15  A    between atoms: C_42  and  C_43 
REMARK   16  A    between atoms: C_43  and  O_44 
REMARK   17  A    between atoms: C_60  and  O_61 
REMARK   18  A    between atoms: C_60  and  O_62 
ROOT
ATOM      1  C           0     133.263 133.968 141.994  0.00  0.00     0.020 C 
ENDROOT
BRANCH   1   2
ATOM      2  C           0     134.474 133.074 142.264  0.00  0.00     0.002 C 
BRANCH   2   3
ATOM      3  C           0     134.008 131.631 142.464  0.00  0.00     0.002 C 
BRANCH   3   4
ATOM      4  C           0     135.090 130.844 143.207  0.00  0.00     0.020 C 
BRANCH   4   5
ATOM      5  C           0     136.367 131.684 143.287  0.00  0.00     0.125 C 
BRANCH   5   6
ATOM      6  N           0     137.077 131.374 144.531  0.00  0.00    -0.337 N 
ATOM      7  C           0     138.257 131.968 144.798  0.00  0.00     0.360 C 
ATOM      8  O           0     138.732 132.761 144.008  0.00  0.00    -0.239 OA
ATOM      9  H           0     136.698 130.741 145.161  0.00  0.00     0.164 HD
BRANCH   7  10
ATOM     10  O           0     138.910 131.683 145.941  0.00  0.00    -0.302 OA
BRANCH  10  11
ATOM     11  C           0     138.318 130.777 146.908  0.00  0.00     0.208 C 
BRANCH  11  12
ATOM     12  C           0     138.155 131.497 148.249  0.00  0.00     0.151 C 
ATOM     13  N           0     138.776 130.689 149.295  0.00  0.00    -0.218 N 
ATOM     14  C           0     138.170 129.494 149.645  0.00  0.00     0.672 C 
ATOM     15  H           0     139.590 130.981 149.733  0.00  0.00     0.178 HD
ATOM     16  N           0     138.848 128.485 150.119  0.00  0.00    -0.235 N 
ATOM     17  N           0     136.814 129.438 149.457  0.00  0.00    -0.183 N 
ATOM     18  H           0     139.808 128.559 150.235  0.00  0.00     0.174 HD
ATOM     19  H           0     138.390 127.664 150.358  0.00  0.00     0.174 HD
ATOM     20  C           0     135.938 130.544 149.066  0.00  0.00     0.217 C 
ATOM     21  C           0     135.936 128.256 149.545  0.00  0.00     0.150 C 
ATOM     22  C           0     136.680 131.742 148.496  0.00  0.00     0.180 C 
ATOM     23  C           0     134.951 129.942 148.051  0.00  0.00     0.209 C 
ATOM     24  N           0     135.204 131.070 150.228  0.00  0.00    -0.191 N 
ATOM     25  N           0     136.527 132.781 149.535  0.00  0.00    -0.216 N 
ATOM     26  C           0     135.481 132.409 150.343  0.00  0.00     0.670 C 
ATOM     27  H           0     137.068 133.580 149.631  0.00  0.00     0.178 HD
ATOM     28  N           0     134.832 133.227 151.124  0.00  0.00    -0.235 N 
ATOM     29  H           0     135.079 134.164 151.158  0.00  0.00     0.174 HD
ATOM     30  H           0     134.100 132.898 151.670  0.00  0.00     0.174 HD
ATOM     31  C           0     134.950 128.424 148.366  0.00  0.00     0.093 C 
ATOM     32  H           0     134.621 130.558 150.811  0.00  0.00     0.180 HD
BRANCH  23  33
ATOM     33  O           0     133.645 130.490 148.235  0.00  0.00    -0.362 OA
ATOM     34  H           0     133.708 131.127 148.960  0.00  0.00     0.213 HD
ENDBRANCH  23  33
BRANCH  23  35
ATOM     35  O           0     135.407 130.174 146.717  0.00  0.00    -0.362 OA
ATOM     36  H           0     135.228 131.104 146.520  0.00  0.00     0.213 HD
ENDBRANCH  23  35
ENDBRANCH  11  12
ENDBRANCH  10  11
ENDBRANCH   7  10
ENDBRANCH   5   6
ENDBRANCH   4   5
ENDBRANCH   3   4
ENDBRANCH   2   3
ENDBRANCH   1   2
BRANCH   1  37
ATOM     37  C           0     133.559 134.883 140.804  0.00  0.00     0.123 C 
BRANCH  37  38
ATOM     38  N           0     133.157 134.216 139.563  0.00  0.00    -0.357 N 
ATOM     39  C           0     132.915 134.944 138.455  0.00  0.00     0.251 C 
ATOM     40  O           0     133.029 136.155 138.485  0.00  0.00    -0.268 OA
ATOM     41  H           0     133.065 133.251 139.538  0.00  0.00     0.162 HD
BRANCH  39  42
ATOM     42  C           0     132.509 134.271 137.201  0.00  0.00     0.032 A 
ATOM     43  C           0     133.024 134.706 135.977  0.00  0.00     0.025 A 
ATOM     44  C           0     132.652 134.076 134.811  0.00  0.00    -0.036 A 
ATOM     45  C           0     131.750 133.008 134.850  0.00  0.00    -0.017 A 
ATOM     46  C           0     131.231 132.578 136.076  0.00  0.00     0.014 A 
ATOM     47  C           0     131.608 133.205 137.242  0.00  0.00     0.018 A 
BRANCH  44  48
ATOM     48  C           0     133.213 134.541 133.491  0.00  0.00     0.149 C 
BRANCH  48  49
ATOM     49  C           0     132.887 135.999 133.293  0.00  0.00     0.143 C 
ATOM     50  O           0     131.747 136.383 133.402  0.00  0.00    -0.650 OA
BRANCH  49  51
ATOM     51  O           0     133.864 136.871 132.996  0.00  0.00    -0.776 OA
ATOM     52  H           0     133.663 137.813 132.919  0.00  0.00     0.167 HD
ENDBRANCH  49  51
ENDBRANCH  48  49
ENDBRANCH  44  48
BRANCH  45  53
ATOM     53  C           0     131.346 132.337 133.600  0.00  0.00     0.001 A 
ATOM     54  C           0     132.121 131.221 133.053  0.00  0.00     0.013 A 
ATOM     55  C           0     133.274 130.761 133.705  0.00  0.00     0.060 A 
ATOM     56  C           0     131.694 130.613 131.856  0.00  0.00     0.090 A 
ATOM     57  C           0     133.981 129.720 133.176  0.00  0.00     0.150 A 
ATOM     58  F           0     135.092 129.275 133.803  0.00  0.00    -0.203 F 
ATOM     59  C           0     133.562 129.112 131.989  0.00  0.00     0.106 A 
ATOM     60  C           0     132.426 129.556 131.334  0.00  0.00     0.077 A 
ATOM     61  O           0     130.585 131.051 131.224  0.00  0.00    -0.309 OA
ATOM     62  C           0     129.843 132.075 131.693  0.00  0.00     0.091 A 
ATOM     63  C           0     130.194 132.742 132.892  0.00  0.00     0.013 A 
ATOM     64  C           0     128.716 132.475 131.003  0.00  0.00     0.096 A 
ATOM     65  C           0     129.403 133.806 133.371  0.00  0.00     0.061 A 
ATOM     66  C           0     128.294 134.188 132.688  0.00  0.00     0.167 A 
ATOM     67  C           0     127.935 133.529 131.491  0.00  0.00     0.212 A 
ATOM     68  F           0     127.534 135.204 133.152  0.00  0.00    -0.202 F 
ATOM     69  O           0     126.936 133.882 130.877  0.00  0.00    -0.285 OA
BRANCH  59  70
ATOM     70  O           0     134.275 128.078 131.475  0.00  0.00    -0.358 OA
ATOM     71  H           0     133.810 127.788 130.678  0.00  0.00     0.217 HD
ENDBRANCH  59  70
ENDBRANCH  45  53
ENDBRANCH  39  42
ENDBRANCH  37  38
ENDBRANCH   1  37
TORSDOF 18
ENDMDL
MODEL 8
REMARK VINA RESULT:      -7.1      4.741     15.316
REMARK  18 active torsions:
REMARK  status: ('A' for Active; 'I' for Inactive)
REMARK    1  A    between atoms: C_6  and  C_7 
REMARK    2  A    between atoms: C_7  and  O_8 
REMARK    3  A    between atoms: O_8  and  C_9 
REMARK       I    between atoms: C_9  and  N_10 
REMARK    4  A    between atoms: N_10  and  C_11 
REMARK    5  A    between atoms: C_11  and  C_12 
REMARK    6  A    between atoms: C_12  and  C_13 
REMARK    7  A    between atoms: C_13  and  C_14 
REMARK    8  A    between atoms: C_14  and  C_15 
REMARK    9  A    between atoms: C_15  and  C_16 
REMARK   10  A    between atoms: C_16  and  N_17 
REMARK       I    between atoms: N_17  and  C_18 
REMARK   11  A    between atoms: C_18  and  C_19 
REMARK   12  A    between atoms: C_22  and  C_23 
REMARK   13  A    between atoms: C_28  and  O_29 
REMARK   14  A    between atoms: C_41  and  C_42 
REMARK   15  A    between atoms: C_42  and  C_43 
REMARK   16  A    between atoms: C_43  and  O_44 
REMARK   17  A    between atoms: C_60  and  O_61 
REMARK   18  A    between atoms: C_60  and  O_62 
ROOT
ATOM      1  C           0     133.249 134.784 141.716  0.00  0.00     0.020 C 
ENDROOT
BRANCH   1   2
ATOM      2  C           0     133.329 133.725 140.616  0.00  0.00     0.002 C 
BRANCH   2   3
ATOM      3  C           0     132.675 134.263 139.342  0.00  0.00     0.002 C 
BRANCH   3   4
ATOM      4  C           0     133.457 135.480 138.842  0.00  0.00     0.020 C 
BRANCH   4   5
ATOM      5  C           0     134.519 135.027 137.838  0.00  0.00     0.125 C 
BRANCH   5   6
ATOM      6  N           0     133.926 134.949 136.501  0.00  0.00    -0.337 N 
ATOM      7  C           0     134.543 135.534 135.455  0.00  0.00     0.360 C 
ATOM      8  O           0     135.591 136.126 135.621  0.00  0.00    -0.239 OA
ATOM      9  H           0     133.088 134.477 136.369  0.00  0.00     0.164 HD
BRANCH   7  10
ATOM     10  O           0     133.997 135.464 134.226  0.00  0.00    -0.302 OA
BRANCH  10  11
ATOM     11  C           0     133.208 134.305 133.848  0.00  0.00     0.208 C 
BRANCH  11  12
ATOM     12  C           0     131.752 134.724 133.637  0.00  0.00     0.151 C 
ATOM     13  N           0     131.012 134.497 134.875  0.00  0.00    -0.218 N 
ATOM     14  C           0     130.778 133.191 135.268  0.00  0.00     0.672 C 
ATOM     15  H           0     130.692 135.242 135.408  0.00  0.00     0.178 HD
ATOM     16  N           0     130.639 132.857 136.521  0.00  0.00    -0.235 N 
ATOM     17  N           0     130.709 132.269 134.257  0.00  0.00    -0.183 N 
ATOM     18  H           0     130.698 133.536 137.213  0.00  0.00     0.174 HD
ATOM     19  H           0     130.472 131.932 136.761  0.00  0.00     0.174 HD
ATOM     20  C           0     130.714 132.546 132.819  0.00  0.00     0.217 C 
ATOM     21  C           0     130.674 130.799 134.371  0.00  0.00     0.150 C 
ATOM     22  C           0     131.185 133.947 132.465  0.00  0.00     0.180 C 
ATOM     23  C           0     131.613 131.462 132.198  0.00  0.00     0.209 C 
ATOM     24  N           0     129.356 132.449 132.260  0.00  0.00    -0.191 N 
ATOM     25  N           0     129.962 134.621 131.981  0.00  0.00    -0.216 N 
ATOM     26  C           0     129.051 133.645 131.660  0.00  0.00     0.670 C 
ATOM     27  H           0     129.826 135.578 131.906  0.00  0.00     0.178 HD
ATOM     28  N           0     128.022 133.832 130.880  0.00  0.00    -0.235 N 
ATOM     29  H           0     127.864 134.704 130.486  0.00  0.00     0.174 HD
ATOM     30  H           0     127.416 133.098 130.692  0.00  0.00     0.174 HD
ATOM     31  C           0     131.590 130.304 133.228  0.00  0.00     0.093 C 
ATOM     32  H           0     128.777 131.672 132.305  0.00  0.00     0.180 HD
BRANCH  23  33
ATOM     33  O           0     131.084 131.027 130.945  0.00  0.00    -0.362 OA
ATOM     34  H           0     130.188 131.384 130.881  0.00  0.00     0.213 HD
ENDBRANCH  23  33
BRANCH  23  35
ATOM     35  O           0     132.944 131.957 132.034  0.00  0.00    -0.362 OA
ATOM     36  H           0     133.448 131.662 132.805  0.00  0.00     0.213 HD
ENDBRANCH  23  35
ENDBRANCH  11  12
ENDBRANCH  10  11
ENDBRANCH   7  10
ENDBRANCH   5   6
ENDBRANCH   4   5
ENDBRANCH   3   4
ENDBRANCH   2   3
ENDBRANCH   1   2
BRANCH   1  37
ATOM     37  C           0     134.635 134.985 142.332  0.00  0.00     0.123 C 
BRANCH  37  38
ATOM     38  N           0     134.718 134.255 143.599  0.00  0.00    -0.357 N 
ATOM     39  C           0     135.430 133.112 143.673  0.00  0.00     0.251 C 
ATOM     40  O           0     136.003 132.688 142.688  0.00  0.00    -0.268 OA
ATOM     41  H           0     134.261 134.592 144.384  0.00  0.00     0.162 HD
BRANCH  39  42
ATOM     42  C           0     135.514 132.375 144.953  0.00  0.00     0.032 A 
ATOM     43  C           0     135.537 133.075 146.162  0.00  0.00     0.025 A 
ATOM     44  C           0     135.609 132.390 147.354  0.00  0.00    -0.036 A 
ATOM     45  C           0     135.670 130.992 147.354  0.00  0.00    -0.017 A 
ATOM     46  C           0     135.652 130.293 146.143  0.00  0.00     0.014 A 
ATOM     47  C           0     135.574 130.980 144.952  0.00  0.00     0.018 A 
BRANCH  44  48
ATOM     48  C           0     135.629 133.145 148.658  0.00  0.00     0.149 C 
BRANCH  48  49
ATOM     49  C           0     136.643 134.257 148.579  0.00  0.00     0.143 C 
ATOM     50  O           0     137.762 134.026 148.187  0.00  0.00    -0.650 OA
BRANCH  49  51
ATOM     51  O           0     136.303 135.503 148.944  0.00  0.00    -0.776 OA
ATOM     52  H           0     136.554 135.836 149.817  0.00  0.00     0.167 HD
ENDBRANCH  49  51
ENDBRANCH  48  49
ENDBRANCH  44  48
BRANCH  45  53
ATOM     53  C           0     135.753 130.257 148.630  0.00  0.00     0.001 A 
ATOM     54  C           0     134.555 129.714 149.273  0.00  0.00     0.013 A 
ATOM     55  C           0     133.290 129.881 148.690  0.00  0.00     0.060 A 
ATOM     56  C           0     134.687 129.019 150.492  0.00  0.00     0.090 A 
ATOM     57  C           0     132.187 129.366 149.307  0.00  0.00     0.150 A 
ATOM     58  F           0     130.968 129.525 148.748  0.00  0.00    -0.203 F 
ATOM     59  C           0     132.312 128.675 150.516  0.00  0.00     0.106 A 
ATOM     60  C           0     133.553 128.503 151.104  0.00  0.00     0.077 A 
ATOM     61  O           0     135.901 128.855 151.058  0.00  0.00    -0.309 OA
ATOM     62  C           0     137.029 129.340 150.499  0.00  0.00     0.091 A 
ATOM     63  C           0     136.992 130.046 149.273  0.00  0.00     0.013 A 
ATOM     64  C           0     138.243 129.136 151.125  0.00  0.00     0.096 A 
ATOM     65  C           0     138.182 130.540 148.701  0.00  0.00     0.061 A 
ATOM     66  C           0     139.371 130.330 149.321  0.00  0.00     0.167 A 
ATOM     67  C           0     139.419 129.626 150.545  0.00  0.00     0.212 A 
ATOM     68  F           0     140.511 130.799 148.768  0.00  0.00    -0.202 F 
ATOM     69  O           0     140.495 129.444 151.102  0.00  0.00    -0.285 OA
BRANCH  59  70
ATOM     70  O           0     131.206 128.169 151.119  0.00  0.00    -0.358 OA
ATOM     71  H           0     130.985 127.350 150.654  0.00  0.00     0.217 HD
ENDBRANCH  59  70
ENDBRANCH  45  53
ENDBRANCH  39  42
ENDBRANCH  37  38
ENDBRANCH   1  37
TORSDOF 18
ENDMDL
MODEL 9
REMARK VINA RESULT:      -6.7      4.701     14.892
REMARK  18 active torsions:
REMARK  status: ('A' for Active; 'I' for Inactive)
REMARK    1  A    between atoms: C_6  and  C_7 
REMARK    2  A    between atoms: C_7  and  O_8 
REMARK    3  A    between atoms: O_8  and  C_9 
REMARK       I    between atoms: C_9  and  N_10 
REMARK    4  A    between atoms: N_10  and  C_11 
REMARK    5  A    between atoms: C_11  and  C_12 
REMARK    6  A    between atoms: C_12  and  C_13 
REMARK    7  A    between atoms: C_13  and  C_14 
REMARK    8  A    between atoms: C_14  and  C_15 
REMARK    9  A    between atoms: C_15  and  C_16 
REMARK   10  A    between atoms: C_16  and  N_17 
REMARK       I    between atoms: N_17  and  C_18 
REMARK   11  A    between atoms: C_18  and  C_19 
REMARK   12  A    between atoms: C_22  and  C_23 
REMARK   13  A    between atoms: C_28  and  O_29 
REMARK   14  A    between atoms: C_41  and  C_42 
REMARK   15  A    between atoms: C_42  and  C_43 
REMARK   16  A    between atoms: C_43  and  O_44 
REMARK   17  A    between atoms: C_60  and  O_61 
REMARK   18  A    between atoms: C_60  and  O_62 
ROOT
ATOM      1  C           0     133.438 135.365 140.010  0.00  0.00     0.020 C 
ENDROOT
BRANCH   1   2
ATOM      2  C           0     132.958 135.650 138.586  0.00  0.00     0.002 C 
BRANCH   2   3
ATOM      3  C           0     133.924 135.014 137.585  0.00  0.00     0.002 C 
BRANCH   3   4
ATOM      4  C           0     133.500 135.385 136.162  0.00  0.00     0.020 C 
BRANCH   4   5
ATOM      5  C           0     134.730 135.403 135.252  0.00  0.00     0.125 C 
BRANCH   5   6
ATOM      6  N           0     134.402 134.767 133.974  0.00  0.00    -0.337 N 
ATOM      7  C           0     134.506 133.430 133.840  0.00  0.00     0.360 C 
ATOM      8  O           0     134.872 132.752 134.779  0.00  0.00    -0.239 OA
ATOM      9  H           0     134.111 135.309 133.223  0.00  0.00     0.164 HD
BRANCH   7  10
ATOM     10  O           0     134.205 132.846 132.664  0.00  0.00    -0.302 OA
BRANCH  10  11
ATOM     11  C           0     134.027 131.407 132.594  0.00  0.00     0.208 C 
BRANCH  11  12
ATOM     12  C           0     132.879 131.080 131.637  0.00  0.00     0.151 C 
ATOM     13  N           0     132.545 132.281 130.875  0.00  0.00    -0.218 N 
ATOM     14  C           0     131.944 133.334 131.543  0.00  0.00     0.672 C 
ATOM     15  H           0     132.739 132.339 129.926  0.00  0.00     0.178 HD
ATOM     16  N           0     132.087 134.572 131.158  0.00  0.00    -0.235 N 
ATOM     17  N           0     131.193 132.993 132.637  0.00  0.00    -0.183 N 
ATOM     18  H           0     132.630 134.778 130.381  0.00  0.00     0.174 HD
ATOM     19  H           0     131.648 135.285 131.647  0.00  0.00     0.174 HD
ATOM     20  C           0     130.851 131.638 133.076  0.00  0.00     0.217 C 
ATOM     21  C           0     130.607 133.890 133.649  0.00  0.00     0.150 C 
ATOM     22  C           0     131.707 130.553 132.442  0.00  0.00     0.180 C 
ATOM     23  C           0     130.991 131.659 134.608  0.00  0.00     0.209 C 
ATOM     24  N           0     129.469 131.296 132.704  0.00  0.00    -0.191 N 
ATOM     25  N           0     130.775 129.848 131.539  0.00  0.00    -0.216 N 
ATOM     26  C           0     129.498 130.160 131.936  0.00  0.00     0.670 C 
ATOM     27  H           0     131.019 129.271 130.799  0.00  0.00     0.178 HD
ATOM     28  N           0     128.442 129.461 131.622  0.00  0.00    -0.235 N 
ATOM     29  H           0     128.532 128.665 131.074  0.00  0.00     0.174 HD
ATOM     30  H           0     127.567 129.736 131.937  0.00  0.00     0.174 HD
ATOM     31  C           0     130.832 133.153 134.990  0.00  0.00     0.093 C 
ATOM     32  H           0     128.673 131.789 132.960  0.00  0.00     0.180 HD
BRANCH  23  33
ATOM     33  O           0     129.963 130.876 135.217  0.00  0.00    -0.362 OA
ATOM     34  H           0     130.049 130.997 136.173  0.00  0.00     0.213 HD
ENDBRANCH  23  33
BRANCH  23  35
ATOM     35  O           0     132.280 131.180 134.996  0.00  0.00    -0.362 OA
ATOM     36  H           0     132.239 131.006 135.946  0.00  0.00     0.213 HD
ENDBRANCH  23  35
ENDBRANCH  11  12
ENDBRANCH  10  11
ENDBRANCH   7  10
ENDBRANCH   5   6
ENDBRANCH   4   5
ENDBRANCH   3   4
ENDBRANCH   2   3
ENDBRANCH   1   2
BRANCH   1  37
ATOM     37  C           0     133.684 133.864 140.174  0.00  0.00     0.123 C 
BRANCH  37  38
ATOM     38  N           0     133.927 133.561 141.587  0.00  0.00    -0.357 N 
ATOM     39  C           0     135.146 133.146 141.987  0.00  0.00     0.251 C 
ATOM     40  O           0     136.043 133.024 141.176  0.00  0.00    -0.268 OA
ATOM     41  H           0     133.212 133.657 142.234  0.00  0.00     0.162 HD
BRANCH  39  42
ATOM     42  C           0     135.391 132.840 143.414  0.00  0.00     0.032 A 
ATOM     43  C           0     136.594 132.244 143.802  0.00  0.00     0.025 A 
ATOM     44  C           0     136.825 131.964 145.130  0.00  0.00    -0.036 A 
ATOM     45  C           0     135.852 132.266 146.089  0.00  0.00    -0.017 A 
ATOM     46  C           0     134.647 132.857 145.697  0.00  0.00     0.014 A 
ATOM     47  C           0     134.419 133.141 144.369  0.00  0.00     0.018 A 
BRANCH  44  48
ATOM     48  C           0     138.125 131.327 145.550  0.00  0.00     0.149 C 
BRANCH  48  49
ATOM     49  C           0     139.227 132.353 145.501  0.00  0.00     0.143 C 
ATOM     50  O           0     139.635 132.852 146.523  0.00  0.00    -0.650 OA
BRANCH  49  51
ATOM     51  O           0     139.756 132.714 144.320  0.00  0.00    -0.776 OA
ATOM     52  H           0     139.177 132.888 143.565  0.00  0.00     0.167 HD
ENDBRANCH  49  51
ENDBRANCH  48  49
ENDBRANCH  44  48
BRANCH  45  53
ATOM     53  C           0     136.097 131.960 147.511  0.00  0.00     0.001 A 
ATOM     54  C           0     136.651 132.967 148.419  0.00  0.00     0.013 A 
ATOM     55  C           0     136.966 134.253 147.958  0.00  0.00     0.060 A 
ATOM     56  C           0     136.867 132.626 149.769  0.00  0.00     0.090 A 
ATOM     57  C           0     137.482 135.174 148.822  0.00  0.00     0.150 A 
ATOM     58  F           0     137.786 136.415 148.380  0.00  0.00    -0.203 F 
ATOM     59  C           0     137.697 134.843 150.163  0.00  0.00     0.106 A 
ATOM     60  C           0     137.392 133.577 150.633  0.00  0.00     0.077 A 
ATOM     61  O           0     136.565 131.390 150.219  0.00  0.00    -0.309 OA
ATOM     62  C           0     136.054 130.434 149.417  0.00  0.00     0.091 A 
ATOM     63  C           0     135.800 130.689 148.047  0.00  0.00     0.013 A 
ATOM     64  C           0     135.762 129.188 149.937  0.00  0.00     0.096 A 
ATOM     65  C           0     135.259 129.679 147.225  0.00  0.00     0.061 A 
ATOM     66  C           0     134.971 128.460 147.747  0.00  0.00     0.167 A 
ATOM     67  C           0     135.221 128.196 149.113  0.00  0.00     0.212 A 
ATOM     68  F           0     134.448 127.496 146.959  0.00  0.00    -0.202 F 
ATOM     69  O           0     134.963 127.092 149.576  0.00  0.00    -0.285 OA
BRANCH  59  70
ATOM     70  O           0     138.210 135.769 151.011  0.00  0.00    -0.358 OA
ATOM     71  H           0     137.471 136.108 151.535  0.00  0.00     0.217 HD
ENDBRANCH  59  70
ENDBRANCH  45  53
ENDBRANCH  39  42
ENDBRANCH  37  38
ENDBRANCH   1  37
TORSDOF 18
ENDMDL
