MODEL 1
REMARK VINA RESULT:      -7.6      0.000      0.000
REMARK  5 active torsions:
REMARK  status: ('A' for Active; 'I' for Inactive)
REMARK    1  A    between atoms: C_6  and  C_7 
REMARK    2  A    between atoms: C_7  and  O_8 
REMARK    3  A    between atoms: O_8  and  C_9 
REMARK    4  A    between atoms: C_23  and  O_24 
REMARK    5  A    between atoms: C_23  and  O_25 
ROOT
ATOM      1  N           0     135.004 136.712 143.189  0.00  0.00    -0.235 N 
ATOM      2  H           0     134.205 137.183 142.904  0.00  0.00     0.174 HD
ATOM      3  H           0     135.812 137.208 143.393  0.00  0.00     0.174 HD
ATOM      4  C           0     134.988 135.414 143.306  0.00  0.00     0.672 C 
ATOM      5  N           0     133.857 134.664 143.034  0.00  0.00    -0.218 N 
ATOM      6  C           0     134.034 133.289 142.577  0.00  0.00     0.151 C 
ATOM      7  C           0     134.957 132.488 143.475  0.00  0.00     0.180 C 
ATOM      8  N           0     134.226 132.099 144.700  0.00  0.00    -0.216 N 
ATOM      9  C           0     135.095 132.221 145.758  0.00  0.00     0.670 C 
ATOM     10  N           0     134.930 131.637 146.912  0.00  0.00    -0.235 N 
ATOM     11  H           0     134.155 131.073 147.064  0.00  0.00     0.174 HD
ATOM     12  H           0     135.582 131.765 147.617  0.00  0.00     0.174 HD
ATOM     13  C           0     136.151 133.272 143.997  0.00  0.00     0.217 C 
ATOM     14  N           0     136.157 133.034 145.450  0.00  0.00    -0.191 N 
ATOM     15  N           0     136.091 134.704 143.702  0.00  0.00    -0.183 N 
ATOM     16  C           0     137.472 135.193 143.862  0.00  0.00     0.150 C 
ATOM     17  C           0     138.351 134.056 143.289  0.00  0.00     0.093 C 
ATOM     18  C           0     137.473 132.783 143.381  0.00  0.00     0.209 C 
ATOM     19  H           0     132.970 135.042 143.145  0.00  0.00     0.178 HD
ATOM     20  H           0     133.301 131.809 144.749  0.00  0.00     0.178 HD
ATOM     21  H           0     136.803 133.388 146.081  0.00  0.00     0.180 HD
ENDROOT
BRANCH   6  22
ATOM     22  C           0     134.618 133.309 141.164  0.00  0.00     0.206 C 
BRANCH  22  23
ATOM     23  O           0     133.564 133.597 140.208  0.00  0.00    -0.320 OA
BRANCH  23  24
ATOM     24  C           0     133.461 134.822 139.671  0.00  0.00     0.254 C 
ATOM     25  C           0     133.636 135.011 138.186  0.00  0.00     0.126 C 
ATOM     26  O           0     133.229 135.774 140.378  0.00  0.00    -0.266 OA
ENDBRANCH  23  24
ENDBRANCH  22  23
ENDBRANCH   6  22
BRANCH  18  27
ATOM     27  O           0     138.092 131.811 144.226  0.00  0.00    -0.362 OA
ATOM     28  H           0     137.481 131.064 144.286  0.00  0.00     0.213 HD
ENDBRANCH  18  27
BRANCH  18  29
ATOM     29  O           0     137.243 132.240 142.079  0.00  0.00    -0.362 OA
ATOM     30  H           0     137.950 131.601 141.915  0.00  0.00     0.213 HD
ENDBRANCH  18  29
TORSDOF 5
ENDMDL
MODEL 2
REMARK VINA RESULT:      -7.4      2.026      5.573
REMARK  5 active torsions:
REMARK  status: ('A' for Active; 'I' for Inactive)
REMARK    1  A    between atoms: C_6  and  C_7 
REMARK    2  A    between atoms: C_7  and  O_8 
REMARK    3  A    between atoms: O_8  and  C_9 
REMARK    4  A    between atoms: C_23  and  O_24 
REMARK    5  A    between atoms: C_23  and  O_25 
ROOT
ATOM      1  N           0     134.952 132.234 146.787  0.00  0.00    -0.235 N 
ATOM      2  H           0     135.192 132.380 147.716  0.00  0.00     0.174 HD
ATOM      3  H           0     134.311 131.545 146.555  0.00  0.00     0.174 HD
ATOM      4  C           0     135.487 132.969 145.853  0.00  0.00     0.672 C 
ATOM      5  N           0     136.402 133.969 146.135  0.00  0.00    -0.218 N 
ATOM      6  C           0     137.392 134.307 145.118  0.00  0.00     0.151 C 
ATOM      7  C           0     136.769 134.573 143.760  0.00  0.00     0.180 C 
ATOM      8  N           0     136.156 135.919 143.762  0.00  0.00    -0.216 N 
ATOM      9  C           0     134.971 135.836 143.072  0.00  0.00     0.670 C 
ATOM     10  N           0     134.347 136.861 142.562  0.00  0.00    -0.235 N 
ATOM     11  H           0     134.718 137.753 142.661  0.00  0.00     0.174 HD
ATOM     12  H           0     133.514 136.733 142.085  0.00  0.00     0.174 HD
ATOM     13  C           0     135.613 133.647 143.415  0.00  0.00     0.217 C 
ATOM     14  N           0     134.526 134.541 142.983  0.00  0.00    -0.191 N 
ATOM     15  N           0     135.183 132.799 144.528  0.00  0.00    -0.183 N 
ATOM     16  C           0     134.414 131.704 143.909  0.00  0.00     0.150 C 
ATOM     17  C           0     135.183 131.386 142.604  0.00  0.00     0.093 C 
ATOM     18  C           0     135.975 132.676 142.278  0.00  0.00     0.209 C 
ATOM     19  H           0     136.384 134.434 146.987  0.00  0.00     0.178 HD
ATOM     20  H           0     136.524 136.716 144.176  0.00  0.00     0.178 HD
ATOM     21  H           0     133.646 134.262 142.684  0.00  0.00     0.180 HD
ENDROOT
BRANCH   6  22
ATOM     22  C           0     138.381 133.148 144.986  0.00  0.00     0.206 C 
BRANCH  22  23
ATOM     23  O           0     138.682 132.617 146.303  0.00  0.00    -0.320 OA
BRANCH  23  24
ATOM     24  C           0     138.780 131.291 146.486  0.00  0.00     0.254 C 
ATOM     25  C           0     140.121 130.666 146.771  0.00  0.00     0.126 C 
ATOM     26  O           0     137.792 130.598 146.421  0.00  0.00    -0.266 OA
ENDBRANCH  23  24
ENDBRANCH  22  23
ENDBRANCH   6  22
BRANCH  18  27
ATOM     27  O           0     135.567 133.206 141.016  0.00  0.00    -0.362 OA
ATOM     28  H           0     136.294 133.049 140.398  0.00  0.00     0.213 HD
ENDBRANCH  18  27
BRANCH  18  29
ATOM     29  O           0     137.380 132.413 142.279  0.00  0.00    -0.362 OA
ATOM     30  H           0     137.810 133.193 141.905  0.00  0.00     0.213 HD
ENDBRANCH  18  29
TORSDOF 5
ENDMDL
MODEL 3
REMARK VINA RESULT:      -6.7      2.841      4.830
REMARK  5 active torsions:
REMARK  status: ('A' for Active; 'I' for Inactive)
REMARK    1  A    between atoms: C_6  and  C_7 
REMARK    2  A    between atoms: C_7  and  O_8 
REMARK    3  A    between atoms: O_8  and  C_9 
REMARK    4  A    between atoms: C_23  and  O_24 
REMARK    5  A    between atoms: C_23  and  O_25 
ROOT
ATOM      1  N           0     139.669 130.686 146.245  0.00  0.00    -0.235 N 
ATOM      2  H           0     140.435 130.804 145.662  0.00  0.00     0.174 HD
ATOM      3  H           0     139.676 129.989 146.919  0.00  0.00     0.174 HD
ATOM      4  C           0     138.634 131.470 146.128  0.00  0.00     0.672 C 
ATOM      5  N           0     138.580 132.483 145.187  0.00  0.00    -0.218 N 
ATOM      6  C           0     137.272 132.886 144.679  0.00  0.00     0.151 C 
ATOM      7  C           0     136.281 133.184 145.787  0.00  0.00     0.180 C 
ATOM      8  N           0     136.582 134.511 146.364  0.00  0.00    -0.216 N 
ATOM      9  C           0     136.407 134.422 147.724  0.00  0.00     0.670 C 
ATOM     10  N           0     136.230 135.448 148.508  0.00  0.00    -0.235 N 
ATOM     11  H           0     136.215 136.345 148.138  0.00  0.00     0.174 HD
ATOM     12  H           0     136.111 135.315 149.461  0.00  0.00     0.174 HD
ATOM     13  C           0     136.374 132.240 146.975  0.00  0.00     0.217 C 
ATOM     14  N           0     136.442 133.119 148.154  0.00  0.00    -0.191 N 
ATOM     15  N           0     137.527 131.340 146.925  0.00  0.00    -0.183 N 
ATOM     16  C           0     137.210 130.248 147.863  0.00  0.00     0.150 C 
ATOM     17  C           0     135.696 129.999 147.665  0.00  0.00     0.093 C 
ATOM     18  C           0     135.143 131.323 147.078  0.00  0.00     0.209 C 
ATOM     19  H           0     139.391 132.915 144.874  0.00  0.00     0.178 HD
ATOM     20  H           0     136.855 135.303 145.872  0.00  0.00     0.178 HD
ATOM     21  H           0     136.499 132.827 149.077  0.00  0.00     0.180 HD
ENDROOT
BRANCH   6  22
ATOM     22  C           0     136.712 131.760 143.808  0.00  0.00     0.206 C 
BRANCH  22  23
ATOM     23  O           0     136.018 132.329 142.668  0.00  0.00    -0.320 OA
BRANCH  23  24
ATOM     24  C           0     134.710 132.087 142.488  0.00  0.00     0.254 C 
ATOM     25  C           0     133.826 133.138 141.868  0.00  0.00     0.126 C 
ATOM     26  O           0     134.240 131.025 142.826  0.00  0.00    -0.266 OA
ENDBRANCH  23  24
ENDBRANCH  22  23
ENDBRANCH   6  22
BRANCH  18  27
ATOM     27  O           0     134.167 131.887 147.954  0.00  0.00    -0.362 OA
ATOM     28  H           0     134.065 131.273 148.693  0.00  0.00     0.213 HD
ENDBRANCH  18  27
BRANCH  18  29
ATOM     29  O           0     134.583 131.097 145.783  0.00  0.00    -0.362 OA
ATOM     30  H           0     134.359 131.966 145.421  0.00  0.00     0.213 HD
ENDBRANCH  18  29
TORSDOF 5
ENDMDL
MODEL 4
REMARK VINA RESULT:      -6.6      2.642      3.627
REMARK  5 active torsions:
REMARK  status: ('A' for Active; 'I' for Inactive)
REMARK    1  A    between atoms: C_6  and  C_7 
REMARK    2  A    between atoms: C_7  and  O_8 
REMARK    3  A    between atoms: O_8  and  C_9 
REMARK    4  A    between atoms: C_23  and  O_24 
REMARK    5  A    between atoms: C_23  and  O_25 
ROOT
ATOM      1  N           0     135.896 134.785 147.753  0.00  0.00    -0.235 N 
ATOM      2  H           0     135.170 134.679 148.387  0.00  0.00     0.174 HD
ATOM      3  H           0     136.363 135.632 147.688  0.00  0.00     0.174 HD
ATOM      4  C           0     136.249 133.786 146.993  0.00  0.00     0.672 C 
ATOM      5  N           0     135.618 132.555 147.054  0.00  0.00    -0.218 N 
ATOM      6  C           0     135.592 131.732 145.849  0.00  0.00     0.151 C 
ATOM      7  C           0     136.965 131.555 145.231  0.00  0.00     0.180 C 
ATOM      8  N           0     137.729 130.564 146.019  0.00  0.00    -0.216 N 
ATOM      9  C           0     139.026 131.010 146.100  0.00  0.00     0.670 C 
ATOM     10  N           0     140.045 130.250 146.393  0.00  0.00    -0.235 N 
ATOM     11  H           0     139.910 129.305 146.570  0.00  0.00     0.174 HD
ATOM     12  H           0     140.936 130.628 146.432  0.00  0.00     0.174 HD
ATOM     13  C           0     137.833 132.804 145.277  0.00  0.00     0.217 C 
ATOM     14  N           0     139.118 132.353 145.835  0.00  0.00    -0.191 N 
ATOM     15  N           0     137.265 133.888 146.079  0.00  0.00    -0.183 N 
ATOM     16  C           0     137.975 135.105 145.648  0.00  0.00     0.150 C 
ATOM     17  C           0     138.144 134.930 144.120  0.00  0.00     0.093 C 
ATOM     18  C           0     138.051 133.403 143.877  0.00  0.00     0.209 C 
ATOM     19  H           0     135.205 132.248 147.877  0.00  0.00     0.178 HD
ATOM     20  H           0     137.378 129.748 146.409  0.00  0.00     0.178 HD
ATOM     21  H           0     139.898 132.910 145.986  0.00  0.00     0.180 HD
ENDROOT
BRANCH   6  22
ATOM     22  C           0     134.671 132.390 144.821  0.00  0.00     0.206 C 
BRANCH  22  23
ATOM     23  O           0     134.655 131.595 143.606  0.00  0.00    -0.320 OA
BRANCH  23  24
ATOM     24  C           0     133.882 131.964 142.573  0.00  0.00     0.254 C 
ATOM     25  C           0     133.583 133.422 142.336  0.00  0.00     0.126 C 
ATOM     26  O           0     133.424 131.126 141.832  0.00  0.00    -0.266 OA
ENDBRANCH  23  24
ENDBRANCH  22  23
ENDBRANCH   6  22
BRANCH  18  27
ATOM     27  O           0     139.265 132.914 143.305  0.00  0.00    -0.362 OA
ATOM     28  H           0     139.822 133.685 143.130  0.00  0.00     0.213 HD
ENDBRANCH  18  27
BRANCH  18  29
ATOM     29  O           0     136.942 133.100 143.029  0.00  0.00    -0.362 OA
ATOM     30  H           0     136.146 133.391 143.495  0.00  0.00     0.213 HD
ENDBRANCH  18  29
TORSDOF 5
ENDMDL
MODEL 5
REMARK VINA RESULT:      -6.6      3.204      6.018
REMARK  5 active torsions:
REMARK  status: ('A' for Active; 'I' for Inactive)
REMARK    1  A    between atoms: C_6  and  C_7 
REMARK    2  A    between atoms: C_7  and  O_8 
REMARK    3  A    between atoms: O_8  and  C_9 
REMARK    4  A    between atoms: C_23  and  O_24 
REMARK    5  A    between atoms: C_23  and  O_25 
ROOT
ATOM      1  N           0     139.059 130.491 145.863  0.00  0.00    -0.235 N 
ATOM      2  H           0     139.244 129.650 146.310  0.00  0.00     0.174 HD
ATOM      3  H           0     139.783 130.998 145.465  0.00  0.00     0.174 HD
ATOM      4  C           0     137.836 130.936 145.793  0.00  0.00     0.672 C 
ATOM      5  N           0     136.768 130.245 146.340  0.00  0.00    -0.218 N 
ATOM      6  C           0     135.607 131.009 146.786  0.00  0.00     0.151 C 
ATOM      7  C           0     135.090 131.962 145.725  0.00  0.00     0.180 C 
ATOM      8  N           0     134.331 131.197 144.713  0.00  0.00    -0.216 N 
ATOM      9  C           0     134.634 131.725 143.481  0.00  0.00     0.670 C 
ATOM     10  N           0     133.903 131.560 142.414  0.00  0.00    -0.235 N 
ATOM     11  H           0     133.087 131.036 142.461  0.00  0.00     0.174 HD
ATOM     12  H           0     134.173 131.961 141.575  0.00  0.00     0.174 HD
ATOM     13  C           0     136.183 132.647 144.919  0.00  0.00     0.217 C 
ATOM     14  N           0     135.800 132.447 143.512  0.00  0.00    -0.191 N 
ATOM     15  N           0     137.525 132.120 145.177  0.00  0.00    -0.183 N 
ATOM     16  C           0     138.451 133.157 144.689  0.00  0.00     0.150 C 
ATOM     17  C           0     137.773 134.492 145.080  0.00  0.00     0.093 C 
ATOM     18  C           0     136.269 134.151 145.230  0.00  0.00     0.209 C 
ATOM     19  H           0     136.791 129.279 146.424  0.00  0.00     0.178 HD
ATOM     20  H           0     133.728 130.456 144.887  0.00  0.00     0.178 HD
ATOM     21  H           0     136.287 132.773 142.739  0.00  0.00     0.180 HD
ENDROOT
BRANCH   6  22
ATOM     22  C           0     135.993 131.816 148.026  0.00  0.00     0.206 C 
BRANCH  22  23
ATOM     23  O           0     134.803 132.409 148.609  0.00  0.00    -0.320 OA
BRANCH  23  24
ATOM     24  C           0     133.978 131.661 149.358  0.00  0.00     0.254 C 
ATOM     25  C           0     134.541 130.624 150.294  0.00  0.00     0.126 C 
ATOM     26  O           0     132.782 131.818 149.280  0.00  0.00    -0.266 OA
ENDBRANCH  23  24
ENDBRANCH  22  23
ENDBRANCH   6  22
BRANCH  18  27
ATOM     27  O           0     135.492 134.902 144.297  0.00  0.00    -0.362 OA
ATOM     28  H           0     134.886 135.450 144.814  0.00  0.00     0.213 HD
ENDBRANCH  18  27
BRANCH  18  29
ATOM     29  O           0     135.831 134.407 146.566  0.00  0.00    -0.362 OA
ATOM     30  H           0     136.504 134.967 146.977  0.00  0.00     0.213 HD
ENDBRANCH  18  29
TORSDOF 5
ENDMDL
MODEL 6
REMARK VINA RESULT:      -6.5      2.667      4.046
REMARK  5 active torsions:
REMARK  status: ('A' for Active; 'I' for Inactive)
REMARK    1  A    between atoms: C_6  and  C_7 
REMARK    2  A    between atoms: C_7  and  O_8 
REMARK    3  A    between atoms: O_8  and  C_9 
REMARK    4  A    between atoms: C_23  and  O_24 
REMARK    5  A    between atoms: C_23  and  O_25 
ROOT
ATOM      1  N           0     138.269 135.343 147.073  0.00  0.00    -0.235 N 
ATOM      2  H           0     137.962 136.216 146.781  0.00  0.00     0.174 HD
ATOM      3  H           0     139.108 135.259 147.552  0.00  0.00     0.174 HD
ATOM      4  C           0     137.550 134.284 146.827  0.00  0.00     0.672 C 
ATOM      5  N           0     136.343 134.353 146.153  0.00  0.00    -0.218 N 
ATOM      6  C           0     135.915 133.191 145.381  0.00  0.00     0.151 C 
ATOM      7  C           0     135.962 131.905 146.184  0.00  0.00     0.180 C 
ATOM      8  N           0     134.800 131.859 147.096  0.00  0.00    -0.216 N 
ATOM      9  C           0     135.231 131.335 148.291  0.00  0.00     0.670 C 
ATOM     10  N           0     134.442 130.816 149.190  0.00  0.00    -0.235 N 
ATOM     11  H           0     133.485 130.783 149.034  0.00  0.00     0.174 HD
ATOM     12  H           0     134.812 130.462 150.013  0.00  0.00     0.174 HD
ATOM     13  C           0     137.160 131.797 147.114  0.00  0.00     0.217 C 
ATOM     14  N           0     136.594 131.425 148.421  0.00  0.00    -0.191 N 
ATOM     15  N           0     137.943 133.029 147.214  0.00  0.00    -0.183 N 
ATOM     16  C           0     139.250 132.618 147.759  0.00  0.00     0.150 C 
ATOM     17  C           0     139.541 131.262 147.073  0.00  0.00     0.093 C 
ATOM     18  C           0     138.154 130.718 146.649  0.00  0.00     0.209 C 
ATOM     19  H           0     135.795 135.153 146.194  0.00  0.00     0.178 HD
ATOM     20  H           0     133.896 132.147 146.889  0.00  0.00     0.178 HD
ATOM     21  H           0     137.098 131.268 149.234  0.00  0.00     0.180 HD
ENDROOT
BRANCH   6  22
ATOM     22  C           0     136.828 133.043 144.162  0.00  0.00     0.206 C 
BRANCH  22  23
ATOM     23  O           0     136.430 131.876 143.397  0.00  0.00    -0.320 OA
BRANCH  23  24
ATOM     24  C           0     135.278 131.886 142.708  0.00  0.00     0.254 C 
ATOM     25  C           0     135.031 132.947 141.667  0.00  0.00     0.126 C 
ATOM     26  O           0     134.439 131.044 142.922  0.00  0.00    -0.266 OA
ENDBRANCH  23  24
ENDBRANCH  22  23
ENDBRANCH   6  22
BRANCH  18  27
ATOM     27  O           0     137.886 129.474 147.297  0.00  0.00    -0.362 OA
ATOM     28  H           0     136.998 129.204 147.028  0.00  0.00     0.213 HD
ENDBRANCH  18  27
BRANCH  18  29
ATOM     29  O           0     138.091 130.566 145.229  0.00  0.00    -0.362 OA
ATOM     30  H           0     137.433 129.880 145.051  0.00  0.00     0.213 HD
ENDBRANCH  18  29
TORSDOF 5
ENDMDL
MODEL 7
REMARK VINA RESULT:      -6.5      3.179      4.592
REMARK  5 active torsions:
REMARK  status: ('A' for Active; 'I' for Inactive)
REMARK    1  A    between atoms: C_6  and  C_7 
REMARK    2  A    between atoms: C_7  and  O_8 
REMARK    3  A    between atoms: O_8  and  C_9 
REMARK    4  A    between atoms: C_23  and  O_24 
REMARK    5  A    between atoms: C_23  and  O_25 
ROOT
ATOM      1  N           0     133.854 131.559 148.592  0.00  0.00    -0.235 N 
ATOM      2  H           0     133.074 131.025 148.372  0.00  0.00     0.174 HD
ATOM      3  H           0     133.891 132.038 149.435  0.00  0.00     0.174 HD
ATOM      4  C           0     134.853 131.628 147.758  0.00  0.00     0.672 C 
ATOM      5  N           0     134.850 130.957 146.547  0.00  0.00    -0.218 N 
ATOM      6  C           0     135.619 131.521 145.443  0.00  0.00     0.151 C 
ATOM      7  C           0     137.050 131.840 145.829  0.00  0.00     0.180 C 
ATOM      8  N           0     137.833 130.586 145.872  0.00  0.00    -0.216 N 
ATOM      9  C           0     138.679 130.663 146.952  0.00  0.00     0.670 C 
ATOM     10  N           0     139.747 129.930 147.098  0.00  0.00    -0.235 N 
ATOM     11  H           0     139.986 129.280 146.418  0.00  0.00     0.174 HD
ATOM     12  H           0     140.303 130.034 147.885  0.00  0.00     0.174 HD
ATOM     13  C           0     137.203 132.413 147.229  0.00  0.00     0.217 C 
ATOM     14  N           0     138.262 131.606 147.857  0.00  0.00    -0.191 N 
ATOM     15  N           0     135.973 132.372 148.022  0.00  0.00    -0.183 N 
ATOM     16  C           0     136.181 133.339 149.114  0.00  0.00     0.150 C 
ATOM     17  C           0     136.943 134.511 148.450  0.00  0.00     0.093 C 
ATOM     18  C           0     137.622 133.894 147.201  0.00  0.00     0.209 C 
ATOM     19  H           0     134.349 130.133 146.436  0.00  0.00     0.178 HD
ATOM     20  H           0     137.761 129.844 145.251  0.00  0.00     0.178 HD
ATOM     21  H           0     138.608 131.723 148.756  0.00  0.00     0.180 HD
ENDROOT
BRANCH   6  22
ATOM     22  C           0     134.938 132.808 144.973  0.00  0.00     0.206 C 
BRANCH  22  23
ATOM     23  O           0     135.560 133.264 143.743  0.00  0.00    -0.320 OA
BRANCH  23  24
ATOM     24  C           0     135.154 134.407 143.169  0.00  0.00     0.254 C 
ATOM     25  C           0     134.019 134.391 142.178  0.00  0.00     0.126 C 
ATOM     26  O           0     135.700 135.449 143.445  0.00  0.00    -0.266 OA
ENDBRANCH  23  24
ENDBRANCH  22  23
ENDBRANCH   6  22
BRANCH  18  27
ATOM     27  O           0     139.041 134.017 147.294  0.00  0.00    -0.362 OA
ATOM     28  H           0     139.221 134.848 147.753  0.00  0.00     0.213 HD
ENDBRANCH  18  27
BRANCH  18  29
ATOM     29  O           0     137.141 134.523 146.011  0.00  0.00    -0.362 OA
ATOM     30  H           0     137.723 134.240 145.292  0.00  0.00     0.213 HD
ENDBRANCH  18  29
TORSDOF 5
ENDMDL
MODEL 8
REMARK VINA RESULT:      -6.4      2.927      4.658
REMARK  5 active torsions:
REMARK  status: ('A' for Active; 'I' for Inactive)
REMARK    1  A    between atoms: C_6  and  C_7 
REMARK    2  A    between atoms: C_7  and  O_8 
REMARK    3  A    between atoms: O_8  and  C_9 
REMARK    4  A    between atoms: C_23  and  O_24 
REMARK    5  A    between atoms: C_23  and  O_25 
ROOT
ATOM      1  N           0     135.656 131.273 142.890  0.00  0.00    -0.235 N 
ATOM      2  H           0     135.749 131.580 141.974  0.00  0.00     0.174 HD
ATOM      3  H           0     134.945 130.657 143.124  0.00  0.00     0.174 HD
ATOM      4  C           0     136.491 131.684 143.803  0.00  0.00     0.672 C 
ATOM      5  N           0     137.525 132.558 143.516  0.00  0.00    -0.218 N 
ATOM      6  C           0     138.001 133.439 144.578  0.00  0.00     0.151 C 
ATOM      7  C           0     138.323 132.691 145.858  0.00  0.00     0.180 C 
ATOM      8  N           0     139.622 132.001 145.704  0.00  0.00    -0.216 N 
ATOM      9  C           0     139.511 130.771 146.305  0.00  0.00     0.670 C 
ATOM     10  N           0     140.528 130.047 146.683  0.00  0.00    -0.235 N 
ATOM     11  H           0     141.432 130.370 146.545  0.00  0.00     0.174 HD
ATOM     12  H           0     140.380 129.186 147.103  0.00  0.00     0.174 HD
ATOM     13  C           0     137.350 131.568 146.183  0.00  0.00     0.217 C 
ATOM     14  N           0     138.199 130.398 146.459  0.00  0.00    -0.191 N 
ATOM     15  N           0     136.397 131.283 145.110  0.00  0.00    -0.183 N 
ATOM     16  C           0     135.302 130.532 145.750  0.00  0.00     0.150 C 
ATOM     17  C           0     135.130 131.208 147.131  0.00  0.00     0.093 C 
ATOM     18  C           0     136.491 131.893 147.417  0.00  0.00     0.209 C 
ATOM     19  H           0     137.924 132.583 142.631  0.00  0.00     0.178 HD
ATOM     20  H           0     140.409 132.354 145.259  0.00  0.00     0.178 HD
ATOM     21  H           0     137.886 129.515 146.709  0.00  0.00     0.180 HD
ENDROOT
BRANCH   6  22
ATOM     22  C           0     136.922 134.481 144.876  0.00  0.00     0.206 C 
BRANCH  22  23
ATOM     23  O           0     136.506 135.114 143.638  0.00  0.00    -0.320 OA
BRANCH  23  24
ATOM     24  C           0     135.202 135.200 143.332  0.00  0.00     0.254 C 
ATOM     25  C           0     134.566 136.547 143.110  0.00  0.00     0.126 C 
ATOM     26  O           0     134.537 134.195 143.236  0.00  0.00    -0.266 OA
ENDBRANCH  23  24
ENDBRANCH  22  23
ENDBRANCH   6  22
BRANCH  18  27
ATOM     27  O           0     137.082 131.351 148.599  0.00  0.00    -0.362 OA
ATOM     28  H           0     136.732 130.456 148.703  0.00  0.00     0.213 HD
ENDBRANCH  18  27
BRANCH  18  29
ATOM     29  O           0     136.320 133.306 147.546  0.00  0.00    -0.362 OA
ATOM     30  H           0     135.416 133.450 147.857  0.00  0.00     0.213 HD
ENDBRANCH  18  29
TORSDOF 5
ENDMDL
MODEL 9
REMARK VINA RESULT:      -6.3     10.334     12.022
REMARK  5 active torsions:
REMARK  status: ('A' for Active; 'I' for Inactive)
REMARK    1  A    between atoms: C_6  and  C_7 
REMARK    2  A    between atoms: C_7  and  O_8 
REMARK    3  A    between atoms: O_8  and  C_9 
REMARK    4  A    between atoms: C_23  and  O_24 
REMARK    5  A    between atoms: C_23  and  O_25 
ROOT
ATOM      1  N           0     130.319 131.681 135.450  0.00  0.00    -0.235 N 
ATOM      2  H           0     129.462 131.999 135.775  0.00  0.00     0.174 HD
ATOM      3  H           0     131.138 131.966 135.884  0.00  0.00     0.174 HD
ATOM      4  C           0     130.369 130.867 134.433  0.00  0.00     0.672 C 
ATOM      5  N           0     129.228 130.426 133.785  0.00  0.00    -0.218 N 
ATOM      6  C           0     129.329 130.073 132.372  0.00  0.00     0.151 C 
ATOM      7  C           0     130.464 129.107 132.090  0.00  0.00     0.180 C 
ATOM      8  N           0     130.061 127.748 132.511  0.00  0.00    -0.216 N 
ATOM      9  C           0     131.155 127.152 133.091  0.00  0.00     0.670 C 
ATOM     10  N           0     131.290 125.865 133.248  0.00  0.00    -0.235 N 
ATOM     11  H           0     130.591 125.263 132.946  0.00  0.00     0.174 HD
ATOM     12  H           0     132.089 125.509 133.665  0.00  0.00     0.174 HD
ATOM     13  C           0     131.726 129.378 132.896  0.00  0.00     0.217 C 
ATOM     14  N           0     132.088 128.079 133.484  0.00  0.00    -0.191 N 
ATOM     15  N           0     131.555 130.395 133.935  0.00  0.00    -0.183 N 
ATOM     16  C           0     132.920 130.834 134.277  0.00  0.00     0.150 C 
ATOM     17  C           0     133.667 130.857 132.923  0.00  0.00     0.093 C 
ATOM     18  C           0     132.874 129.890 132.009  0.00  0.00     0.209 C 
ATOM     19  H           0     128.384 130.354 134.258  0.00  0.00     0.178 HD
ATOM     20  H           0     129.184 127.349 132.398  0.00  0.00     0.178 HD
ATOM     21  H           0     132.856 127.906 134.050  0.00  0.00     0.180 HD
ENDROOT
BRANCH   6  22
ATOM     22  C           0     129.555 131.348 131.559  0.00  0.00     0.206 C 
BRANCH  22  23
ATOM     23  O           0     128.274 131.893 131.148  0.00  0.00    -0.320 OA
BRANCH  23  24
ATOM     24  C           0     127.828 133.039 131.686  0.00  0.00     0.254 C 
ATOM     25  C           0     128.775 133.937 132.439  0.00  0.00     0.126 C 
ATOM     26  O           0     126.666 133.350 131.567  0.00  0.00    -0.266 OA
ENDBRANCH  23  24
ENDBRANCH  22  23
ENDBRANCH   6  22
BRANCH  18  27
ATOM     27  O           0     133.705 128.807 131.589  0.00  0.00    -0.362 OA
ATOM     28  H           0     134.174 128.493 132.374  0.00  0.00     0.213 HD
ENDBRANCH  18  27
BRANCH  18  29
ATOM     29  O           0     132.353 130.588 130.876  0.00  0.00    -0.362 OA
ATOM     30  H           0     131.555 131.046 131.174  0.00  0.00     0.213 HD
ENDBRANCH  18  29
TORSDOF 5
ENDMDL
