# created with PyMOL 2.3.4
@<TRIPOS>MOLECULE
ligand_out_0001
30 32 1                 
SMALL
USER_CHARGES
@<TRIPOS>ATOM
1	   N	135.004	136.712	143.189	N.3	1	UNK0	-0.235	
2	   N	133.857	134.664	143.034	N.3	1	UNK0	-0.218	
3	   N	134.226	132.099	144.700	N.3	1	UNK0	-0.216	
4	   N	134.930	131.637	146.912	N.3	1	UNK0	-0.235	
5	   N	136.157	133.034	145.450	N.3	1	UNK0	-0.191	
6	   N	136.091	134.704	143.702	N.3	1	UNK0	-0.183	
7	   C	134.988	135.414	143.306	C.3	1	UNK0	0.672	
8	   C	134.034	133.289	142.577	C.3	1	UNK0	0.151	
9	   C	134.957	132.488	143.475	C.3	1	UNK0	0.180	
10	   C	135.095	132.221	145.758	C.3	1	UNK0	0.670	
11	   C	136.151	133.272	143.997	C.3	1	UNK0	0.217	
12	   C	137.472	135.193	143.862	C.3	1	UNK0	0.150	
13	   C	138.351	134.056	143.289	C.3	1	UNK0	0.093	
14	   C	137.473	132.783	143.381	C.3	1	UNK0	0.209	
15	   C	134.618	133.309	141.164	C.2	1	UNK0	0.206	
16	   C	133.461	134.822	139.671	C.2	1	UNK0	0.254	
17	   C	133.636	135.011	138.186	C.3	1	UNK0	0.126	
18	   O	133.564	133.597	140.208	O.2	1	UNK0	-0.320	
19	   O	133.229	135.774	140.378	O.co2	1	UNK0	-0.266	
20	   O	138.092	131.811	144.226	O.2	1	UNK0	-0.362	
21	   O	137.243	132.240	142.079	O.2	1	UNK0	-0.362	
22	   H	134.205	137.183	142.904	 H	1	UNK0	0.174	
23	   H	135.812	137.208	143.393	 H	1	UNK0	0.174	
24	   H	134.155	131.073	147.064	 H	1	UNK0	0.174	
25	   H	135.582	131.765	147.617	 H	1	UNK0	0.174	
26	   H	132.970	135.042	143.145	 H	1	UNK0	0.178	
27	   H	133.301	131.809	144.749	 H	1	UNK0	0.178	
28	   H	136.803	133.388	146.081	 H	1	UNK0	0.180	
29	   H	137.481	131.064	144.286	 H	1	UNK0	0.213	
30	   H	137.950	131.601	141.915	 H	1	UNK0	0.213	
@<TRIPOS>BOND
1 1 7 1
2 1 22 1
3 1 23 1
4 2 8 1
5 2 26 1
6 3 10 1
7 3 27 1
8 4 24 1
9 4 25 1
10 5 28 1
11 6 12 1
12 2 7 1
13 6 7 1
14 8 9 1
15 8 15 1
16 3 9 1
17 9 11 1
18 4 10 1
19 5 10 1
20 5 11 1
21 6 11 1
22 11 14 1
23 12 13 1
24 13 14 1
25 14 20 2
26 14 21 2
27 15 18 2
28 16 17 1
29 16 19 2
30 16 18 2
31 20 29 1
32 21 30 1
@<TRIPOS>SUBSTRUCTURE
1	UNK0	1	GROUP	1 ****	UNK
