# created with PyMOL 2.3.4
@<TRIPOS>MOLECULE
ligand_out_0001
32 35 1                 
SMALL
USER_CHARGES
@<TRIPOS>ATOM
1	   N	133.407	134.877	140.145	N.3	1	UNK0	-0.235	
2	   N	133.229	132.979	141.517	N.pl3	1	UNK0	-0.200	
3	   N	134.277	134.933	142.330	N.3	1	UNK0	-0.211	
4	   C	133.627	134.286	141.286	C.3	1	UNK0	0.670	
5	   C	134.162	132.091	142.233	C.2	1	UNK0	0.244	
6	   C	134.644	132.815	143.493	C.3	1	UNK0	0.101	
7	   C	135.256	134.161	143.086	C.3	1	UNK0	0.119	
8	   C	136.486	133.876	142.214	C.2	1	UNK0	0.243	
9	   C	135.703	131.982	144.214	C.2	1	UNK0	0.177	
10	   C	137.442	133.036	143.069	C.3	1	UNK0	0.311	
11	   C	136.128	132.726	145.489	C.3	1	UNK0	0.134	
12	   C	136.766	134.058	145.054	C.2	1	UNK0	0.198	
13	   C	135.722	134.906	144.337	C.2	1	UNK0	0.182	
14	   C	137.140	131.883	146.268	C.2	1	UNK0	0.207	
15	   O	136.850	131.789	143.394	O.2	1	UNK0	-0.322	
16	   O	137.869	133.778	144.197	O.2	1	UNK0	-0.319	
17	   O	134.983	132.985	146.303	O.2	1	UNK0	-0.382	
18	   O	137.058	130.523	145.837	O.2	1	UNK0	-0.398	
19	   O	136.298	136.159	143.962	O.2	1	UNK0	-0.390	
20	   O	133.492	130.883	142.599	O.2	1	UNK0	-0.376	
21	   O	138.607	132.770	142.284	O.2	1	UNK0	-0.341	
22	   O	136.100	133.146	141.047	O.2	1	UNK0	-0.385	
23	   H	132.955	134.400	139.432	 H	1	UNK0	0.174	
24	   H	133.694	135.794	140.011	 H	1	UNK0	0.174	
25	   H	132.364	132.659	141.219	 H	1	UNK0	0.180	
26	   H	134.083	135.858	142.548	 H	1	UNK0	0.178	
27	   H	135.256	132.853	147.221	 H	1	UNK0	0.210	
28	   H	136.924	130.541	144.880	 H	1	UNK0	0.209	
29	   H	136.380	136.682	144.771	 H	1	UNK0	0.210	
30	   H	133.599	130.782	143.556	 H	1	UNK0	0.212	
31	   H	139.368	133.046	142.812	 H	1	UNK0	0.215	
32	   H	136.734	133.372	140.353	 H	1	UNK0	0.210	
@<TRIPOS>BOND
1 1 4 1
2 1 23 1
3 1 24 1
4 2 5 1
5 2 25 1
6 3 26 1
7 2 4 1
8 3 4 1
9 5 6 1
10 5 20 2
11 6 7 1
12 6 9 1
13 3 7 1
14 7 8 1
15 7 13 1
16 8 10 1
17 8 22 2
18 9 11 1
19 9 15 2
20 10 16 2
21 10 21 2
22 11 12 1
23 11 14 1
24 11 17 2
25 12 13 1
26 13 19 2
27 14 18 2
28 10 15 2
29 12 16 2
30 17 27 1
31 18 28 1
32 19 29 1
33 20 30 1
34 21 31 1
35 22 32 1
@<TRIPOS>SUBSTRUCTURE
1	UNK0	1	GROUP	1 ****	UNK
