MODEL 1
REMARK VINA RESULT:      -7.8      0.000      0.000
REMARK  7 active torsions:
REMARK  status: ('A' for Active; 'I' for Inactive)
REMARK    1  A    between atoms: C_6  and  O_7 
REMARK    2  A    between atoms: C_10  and  O_11 
REMARK    3  A    between atoms: C_15  and  O_16 
REMARK    4  A    between atoms: C_18  and  O_19 
REMARK    5  A    between atoms: C_18  and  C_20 
REMARK    6  A    between atoms: C_20  and  O_21 
REMARK    7  A    between atoms: C_23  and  O_24 
ROOT
ATOM      1  N           0     133.407 134.877 140.145  0.00  0.00    -0.235 N 
ATOM      2  H           0     132.955 134.400 139.432  0.00  0.00     0.174 HD
ATOM      3  H           0     133.694 135.794 140.011  0.00  0.00     0.174 HD
ATOM      4  C           0     133.627 134.286 141.286  0.00  0.00     0.670 C 
ATOM      5  N           0     133.229 132.979 141.517  0.00  0.00    -0.200 N 
ATOM      6  C           0     134.162 132.091 142.233  0.00  0.00     0.244 C 
ATOM      7  C           0     134.644 132.815 143.493  0.00  0.00     0.101 C 
ATOM      8  C           0     135.256 134.161 143.086  0.00  0.00     0.119 C 
ATOM      9  C           0     136.486 133.876 142.214  0.00  0.00     0.243 C 
ATOM     10  N           0     134.277 134.933 142.330  0.00  0.00    -0.211 N 
ATOM     11  C           0     135.703 131.982 144.214  0.00  0.00     0.177 C 
ATOM     12  O           0     136.850 131.789 143.394  0.00  0.00    -0.322 OA
ATOM     13  C           0     137.442 133.036 143.069  0.00  0.00     0.311 C 
ATOM     14  O           0     137.869 133.778 144.197  0.00  0.00    -0.319 OA
ATOM     15  C           0     136.128 132.726 145.489  0.00  0.00     0.134 C 
ATOM     16  C           0     136.766 134.058 145.054  0.00  0.00     0.198 C 
ATOM     17  C           0     135.722 134.906 144.337  0.00  0.00     0.182 C 
ATOM     18  H           0     132.364 132.659 141.219  0.00  0.00     0.180 HD
ATOM     19  H           0     134.083 135.858 142.548  0.00  0.00     0.178 HD
ENDROOT
BRANCH  15  20
ATOM     20  O           0     134.983 132.985 146.303  0.00  0.00    -0.382 OA
ATOM     21  H           0     135.256 132.853 147.221  0.00  0.00     0.210 HD
ENDBRANCH  15  20
BRANCH  15  22
ATOM     22  C           0     137.140 131.883 146.268  0.00  0.00     0.207 C 
BRANCH  22  23
ATOM     23  O           0     137.058 130.523 145.837  0.00  0.00    -0.398 OA
ATOM     24  H           0     136.924 130.541 144.880  0.00  0.00     0.209 HD
ENDBRANCH  22  23
ENDBRANCH  15  22
BRANCH  17  25
ATOM     25  O           0     136.298 136.159 143.962  0.00  0.00    -0.390 OA
ATOM     26  H           0     136.380 136.682 144.771  0.00  0.00     0.210 HD
ENDBRANCH  17  25
BRANCH   6  27
ATOM     27  O           0     133.492 130.883 142.599  0.00  0.00    -0.376 OA
ATOM     28  H           0     133.599 130.782 143.556  0.00  0.00     0.212 HD
ENDBRANCH   6  27
BRANCH  13  29
ATOM     29  O           0     138.607 132.770 142.284  0.00  0.00    -0.341 OA
ATOM     30  H           0     139.368 133.046 142.812  0.00  0.00     0.215 HD
ENDBRANCH  13  29
BRANCH   9  31
ATOM     31  O           0     136.100 133.146 141.047  0.00  0.00    -0.385 OA
ATOM     32  H           0     136.734 133.372 140.353  0.00  0.00     0.210 HD
ENDBRANCH   9  31
TORSDOF 7
ENDMDL
MODEL 2
REMARK VINA RESULT:      -7.2      1.738      2.351
REMARK  7 active torsions:
REMARK  status: ('A' for Active; 'I' for Inactive)
REMARK    1  A    between atoms: C_6  and  O_7 
REMARK    2  A    between atoms: C_10  and  O_11 
REMARK    3  A    between atoms: C_15  and  O_16 
REMARK    4  A    between atoms: C_18  and  O_19 
REMARK    5  A    between atoms: C_18  and  C_20 
REMARK    6  A    between atoms: C_20  and  O_21 
REMARK    7  A    between atoms: C_23  and  O_24 
ROOT
ATOM      1  N           0     135.025 136.259 142.884  0.00  0.00    -0.235 N 
ATOM      2  H           0     134.780 136.324 141.947  0.00  0.00     0.174 HD
ATOM      3  H           0     135.415 137.021 143.338  0.00  0.00     0.174 HD
ATOM      4  C           0     134.826 135.146 143.532  0.00  0.00     0.670 C 
ATOM      5  N           0     134.266 134.036 142.919  0.00  0.00    -0.200 N 
ATOM      6  C           0     134.849 132.717 143.218  0.00  0.00     0.244 C 
ATOM      7  C           0     134.972 132.577 144.738  0.00  0.00     0.101 C 
ATOM      8  C           0     135.792 133.756 145.278  0.00  0.00     0.119 C 
ATOM      9  C           0     137.205 133.658 144.685  0.00  0.00     0.243 C 
ATOM     10  N           0     135.168 135.010 144.873  0.00  0.00    -0.211 N 
ATOM     11  C           0     135.677 131.271 145.099  0.00  0.00     0.177 C 
ATOM     12  O           0     137.002 131.244 144.581  0.00  0.00    -0.322 OA
ATOM     13  C           0     137.770 132.303 145.128  0.00  0.00     0.311 C 
ATOM     14  O           0     137.883 132.259 146.539  0.00  0.00    -0.319 OA
ATOM     15  C           0     135.742 131.155 146.629  0.00  0.00     0.134 C 
ATOM     16  C           0     136.595 132.330 147.143  0.00  0.00     0.198 C 
ATOM     17  C           0     135.904 133.644 146.798  0.00  0.00     0.182 C 
ATOM     18  H           0     133.514 134.125 142.313  0.00  0.00     0.180 HD
ATOM     19  H           0     134.994 135.719 145.511  0.00  0.00     0.178 HD
ENDROOT
BRANCH  15  20
ATOM     20  O           0     134.426 131.240 147.178  0.00  0.00    -0.382 OA
ATOM     21  H           0     134.223 130.373 147.555  0.00  0.00     0.210 HD
ENDBRANCH  15  20
BRANCH  15  22
ATOM     22  C           0     136.384 129.823 147.021  0.00  0.00     0.207 C 
BRANCH  22  23
ATOM     23  O           0     135.809 128.771 146.244  0.00  0.00    -0.398 OA
ATOM     24  H           0     135.860 129.047 145.319  0.00  0.00     0.209 HD
ENDBRANCH  22  23
ENDBRANCH  15  22
BRANCH  17  25
ATOM     25  O           0     136.672 134.737 147.304  0.00  0.00    -0.390 OA
ATOM     26  H           0     137.589 134.579 147.039  0.00  0.00     0.210 HD
ENDBRANCH  17  25
BRANCH   6  27
ATOM     27  O           0     133.998 131.687 142.708  0.00  0.00    -0.376 OA
ATOM     28  H           0     133.677 131.186 143.472  0.00  0.00     0.212 HD
ENDBRANCH   6  27
BRANCH  13  29
ATOM     29  O           0     139.095 132.194 144.604  0.00  0.00    -0.341 OA
ATOM     30  H           0     139.629 131.761 145.283  0.00  0.00     0.215 HD
ENDBRANCH  13  29
BRANCH   9  31
ATOM     31  O           0     137.143 133.722 143.259  0.00  0.00    -0.385 OA
ATOM     32  H           0     138.041 133.902 142.948  0.00  0.00     0.210 HD
ENDBRANCH   9  31
TORSDOF 7
ENDMDL
MODEL 3
REMARK VINA RESULT:      -7.1      3.099      5.208
REMARK  7 active torsions:
REMARK  status: ('A' for Active; 'I' for Inactive)
REMARK    1  A    between atoms: C_6  and  O_7 
REMARK    2  A    between atoms: C_10  and  O_11 
REMARK    3  A    between atoms: C_15  and  O_16 
REMARK    4  A    between atoms: C_18  and  O_19 
REMARK    5  A    between atoms: C_18  and  C_20 
REMARK    6  A    between atoms: C_20  and  O_21 
REMARK    7  A    between atoms: C_23  and  O_24 
ROOT
ATOM      1  N           0     134.385 130.639 149.344  0.00  0.00    -0.235 N 
ATOM      2  H           0     134.623 130.689 150.284  0.00  0.00     0.174 HD
ATOM      3  H           0     133.907 129.866 149.005  0.00  0.00     0.174 HD
ATOM      4  C           0     134.707 131.611 148.538  0.00  0.00     0.670 C 
ATOM      5  N           0     135.385 132.734 148.986  0.00  0.00    -0.200 N 
ATOM      6  C           0     136.468 133.266 148.141  0.00  0.00     0.244 C 
ATOM      7  C           0     135.941 133.401 146.710  0.00  0.00     0.101 C 
ATOM      8  C           0     135.406 132.039 146.249  0.00  0.00     0.119 C 
ATOM      9  C           0     136.584 131.055 146.221  0.00  0.00     0.243 C 
ATOM     10  N           0     134.390 131.573 147.185  0.00  0.00    -0.211 N 
ATOM     11  C           0     137.061 133.843 145.769  0.00  0.00     0.177 C 
ATOM     12  O           0     138.105 132.877 145.726  0.00  0.00    -0.322 OA
ATOM     13  C           0     137.614 131.636 145.246  0.00  0.00     0.311 C 
ATOM     14  O           0     137.068 131.704 143.941  0.00  0.00    -0.319 OA
ATOM     15  C           0     136.480 134.004 144.357  0.00  0.00     0.134 C 
ATOM     16  C           0     135.978 132.619 143.905  0.00  0.00     0.198 C 
ATOM     17  C           0     134.855 132.164 144.830  0.00  0.00     0.182 C 
ATOM     18  H           0     135.154 133.156 149.827  0.00  0.00     0.180 HD
ATOM     19  H           0     133.527 131.254 146.879  0.00  0.00     0.178 HD
ENDROOT
BRANCH  15  20
ATOM     20  O           0     135.388 134.925 144.384  0.00  0.00    -0.382 OA
ATOM     21  H           0     134.726 134.593 143.763  0.00  0.00     0.210 HD
ENDBRANCH  15  20
BRANCH  15  22
ATOM     22  C           0     137.564 134.511 143.404  0.00  0.00     0.207 C 
BRANCH  22  23
ATOM     23  O           0     137.437 133.850 142.144  0.00  0.00    -0.398 OA
ATOM     24  H           0     137.929 134.378 141.500  0.00  0.00     0.209 HD
ENDBRANCH  22  23
ENDBRANCH  15  22
BRANCH  17  25
ATOM     25  O           0     134.360 130.896 144.395  0.00  0.00    -0.390 OA
ATOM     26  H           0     133.664 131.075 143.748  0.00  0.00     0.210 HD
ENDBRANCH  17  25
BRANCH   6  27
ATOM     27  O           0     136.874 134.547 148.628  0.00  0.00    -0.376 OA
ATOM     28  H           0     137.624 134.828 148.085  0.00  0.00     0.212 HD
ENDBRANCH   6  27
BRANCH  13  29
ATOM     29  O           0     138.716 130.728 145.187  0.00  0.00    -0.341 OA
ATOM     30  H           0     139.512 131.242 145.376  0.00  0.00     0.215 HD
ENDBRANCH  13  29
BRANCH   9  31
ATOM     31  O           0     137.154 130.936 147.526  0.00  0.00    -0.385 OA
ATOM     32  H           0     137.316 131.834 147.844  0.00  0.00     0.210 HD
ENDBRANCH   9  31
TORSDOF 7
ENDMDL
MODEL 4
REMARK VINA RESULT:      -7.0      2.180      4.012
REMARK  7 active torsions:
REMARK  status: ('A' for Active; 'I' for Inactive)
REMARK    1  A    between atoms: C_6  and  O_7 
REMARK    2  A    between atoms: C_10  and  O_11 
REMARK    3  A    between atoms: C_15  and  O_16 
REMARK    4  A    between atoms: C_18  and  O_19 
REMARK    5  A    between atoms: C_18  and  C_20 
REMARK    6  A    between atoms: C_20  and  O_21 
REMARK    7  A    between atoms: C_23  and  O_24 
ROOT
ATOM      1  N           0     133.584 131.801 142.351  0.00  0.00    -0.235 N 
ATOM      2  H           0     133.538 132.269 141.502  0.00  0.00     0.174 HD
ATOM      3  H           0     132.772 131.474 142.769  0.00  0.00     0.174 HD
ATOM      4  C           0     134.737 131.607 142.927  0.00  0.00     0.670 C 
ATOM      5  N           0     135.919 132.055 142.358  0.00  0.00    -0.200 N 
ATOM      6  C           0     136.920 132.672 143.245  0.00  0.00     0.244 C 
ATOM      7  C           0     137.132 131.748 144.448  0.00  0.00     0.101 C 
ATOM      8  C           0     135.777 131.494 145.121  0.00  0.00     0.119 C 
ATOM      9  C           0     135.255 132.836 145.652  0.00  0.00     0.243 C 
ATOM     10  N           0     134.843 130.946 144.145  0.00  0.00    -0.211 N 
ATOM     11  C           0     138.079 132.396 145.458  0.00  0.00     0.177 C 
ATOM     12  O           0     137.532 133.606 145.968  0.00  0.00    -0.322 OA
ATOM     13  C           0     136.308 133.355 146.638  0.00  0.00     0.311 C 
ATOM     14  O           0     136.428 132.467 147.735  0.00  0.00    -0.319 OA
ATOM     15  C           0     138.293 131.420 146.624  0.00  0.00     0.134 C 
ATOM     16  C           0     136.927 131.206 147.302  0.00  0.00     0.198 C 
ATOM     17  C           0     135.969 130.554 146.311  0.00  0.00     0.182 C 
ATOM     18  H           0     136.082 131.963 141.407  0.00  0.00     0.180 HD
ATOM     19  H           0     134.320 130.152 144.333  0.00  0.00     0.178 HD
ENDROOT
BRANCH  15  20
ATOM     20  O           0     138.785 130.174 146.130  0.00  0.00    -0.382 OA
ATOM     21  H           0     139.233 130.361 145.294  0.00  0.00     0.210 HD
ENDBRANCH  15  20
BRANCH  15  22
ATOM     22  C           0     139.291 132.015 147.620  0.00  0.00     0.207 C 
BRANCH  22  23
ATOM     23  O           0     140.219 132.847 146.924  0.00  0.00    -0.398 OA
ATOM     24  H           0     140.659 132.288 146.269  0.00  0.00     0.209 HD
ENDBRANCH  22  23
ENDBRANCH  15  22
BRANCH  17  25
ATOM     25  O           0     134.711 130.319 146.944  0.00  0.00    -0.390 OA
ATOM     26  H           0     134.094 130.050 146.248  0.00  0.00     0.210 HD
ENDBRANCH  17  25
BRANCH   6  27
ATOM     27  O           0     138.153 132.835 142.541  0.00  0.00    -0.376 OA
ATOM     28  H           0     138.466 131.947 142.316  0.00  0.00     0.212 HD
ENDBRANCH   6  27
BRANCH  13  29
ATOM     29  O           0     135.836 134.598 147.162  0.00  0.00    -0.341 OA
ATOM     30  H           0     135.631 134.449 148.094  0.00  0.00     0.215 HD
ENDBRANCH  13  29
BRANCH   9  31
ATOM     31  O           0     135.095 133.760 144.573  0.00  0.00    -0.385 OA
ATOM     32  H           0     134.848 133.242 143.795  0.00  0.00     0.210 HD
ENDBRANCH   9  31
TORSDOF 7
ENDMDL
MODEL 5
REMARK VINA RESULT:      -6.9      2.743      4.843
REMARK  7 active torsions:
REMARK  status: ('A' for Active; 'I' for Inactive)
REMARK    1  A    between atoms: C_6  and  O_7 
REMARK    2  A    between atoms: C_10  and  O_11 
REMARK    3  A    between atoms: C_15  and  O_16 
REMARK    4  A    between atoms: C_18  and  O_19 
REMARK    5  A    between atoms: C_18  and  C_20 
REMARK    6  A    between atoms: C_20  and  O_21 
REMARK    7  A    between atoms: C_23  and  O_24 
ROOT
ATOM      1  N           0     137.398 130.279 147.577  0.00  0.00    -0.235 N 
ATOM      2  H           0     137.845 130.587 148.381  0.00  0.00     0.174 HD
ATOM      3  H           0     137.553 129.379 147.251  0.00  0.00     0.174 HD
ATOM      4  C           0     136.587 131.073 146.937  0.00  0.00     0.670 C 
ATOM      5  N           0     136.337 132.364 147.375  0.00  0.00    -0.200 N 
ATOM      6  C           0     136.276 133.434 146.364  0.00  0.00     0.244 C 
ATOM      7  C           0     135.344 132.980 145.237  0.00  0.00     0.101 C 
ATOM      8  C           0     135.847 131.637 144.691  0.00  0.00     0.119 C 
ATOM      9  C           0     137.238 131.867 144.082  0.00  0.00     0.243 C 
ATOM     10  N           0     135.933 130.670 145.779  0.00  0.00    -0.211 N 
ATOM     11  C           0     135.335 134.008 144.106  0.00  0.00     0.177 C 
ATOM     12  O           0     136.629 134.148 143.530  0.00  0.00    -0.322 OA
ATOM     13  C           0     137.063 132.916 142.978  0.00  0.00     0.311 C 
ATOM     14  O           0     136.216 132.416 141.959  0.00  0.00    -0.319 OA
ATOM     15  C           0     134.360 133.531 143.019  0.00  0.00     0.134 C 
ATOM     16  C           0     134.902 132.200 142.466  0.00  0.00     0.198 C 
ATOM     17  C           0     134.914 131.159 143.580  0.00  0.00     0.182 C 
ATOM     18  H           0     136.205 132.557 148.316  0.00  0.00     0.180 HD
ATOM     19  H           0     135.546 129.785 145.702  0.00  0.00     0.178 HD
ENDROOT
BRANCH  15  20
ATOM     20  O           0     133.065 133.325 143.586  0.00  0.00    -0.382 OA
ATOM     21  H           0     132.765 134.182 143.917  0.00  0.00     0.210 HD
ENDBRANCH  15  20
BRANCH  15  22
ATOM     22  C           0     134.279 134.574 141.903  0.00  0.00     0.207 C 
BRANCH  22  23
ATOM     23  O           0     134.417 135.882 142.462  0.00  0.00    -0.398 OA
ATOM     24  H           0     133.753 136.440 142.035  0.00  0.00     0.209 HD
ENDBRANCH  22  23
ENDBRANCH  15  22
BRANCH  17  25
ATOM     25  O           0     135.381 129.911 143.065  0.00  0.00    -0.390 OA
ATOM     26  H           0     134.603 129.429 142.753  0.00  0.00     0.210 HD
ENDBRANCH  17  25
BRANCH   6  27
ATOM     27  O           0     135.765 134.630 146.958  0.00  0.00    -0.376 OA
ATOM     28  H           0     135.238 135.076 146.279  0.00  0.00     0.212 HD
ENDBRANCH   6  27
BRANCH  13  29
ATOM     29  O           0     138.343 133.135 142.381  0.00  0.00    -0.341 OA
ATOM     30  H           0     138.388 134.073 142.155  0.00  0.00     0.215 HD
ENDBRANCH  13  29
BRANCH   9  31
ATOM     31  O           0     138.136 132.351 145.083  0.00  0.00    -0.385 OA
ATOM     32  H           0     139.012 132.003 144.864  0.00  0.00     0.210 HD
ENDBRANCH   9  31
TORSDOF 7
ENDMDL
MODEL 6
REMARK VINA RESULT:      -6.7      2.954      4.802
REMARK  7 active torsions:
REMARK  status: ('A' for Active; 'I' for Inactive)
REMARK    1  A    between atoms: C_6  and  O_7 
REMARK    2  A    between atoms: C_10  and  O_11 
REMARK    3  A    between atoms: C_15  and  O_16 
REMARK    4  A    between atoms: C_18  and  O_19 
REMARK    5  A    between atoms: C_18  and  C_20 
REMARK    6  A    between atoms: C_20  and  O_21 
REMARK    7  A    between atoms: C_23  and  O_24 
ROOT
ATOM      1  N           0     138.514 133.225 148.509  0.00  0.00    -0.235 N 
ATOM      2  H           0     138.189 133.323 149.418  0.00  0.00     0.174 HD
ATOM      3  H           0     139.389 133.567 148.267  0.00  0.00     0.174 HD
ATOM      4  C           0     137.776 132.632 147.614  0.00  0.00     0.670 C 
ATOM      5  N           0     136.523 132.127 147.923  0.00  0.00    -0.200 N 
ATOM      6  C           0     135.436 132.339 146.950  0.00  0.00     0.244 C 
ATOM      7  C           0     135.940 131.920 145.566  0.00  0.00     0.101 C 
ATOM      8  C           0     137.220 132.703 145.248  0.00  0.00     0.119 C 
ATOM      9  C           0     136.857 134.193 145.180  0.00  0.00     0.243 C 
ATOM     10  N           0     138.204 132.477 146.300  0.00  0.00    -0.211 N 
ATOM     11  C           0     134.888 132.227 144.501  0.00  0.00     0.177 C 
ATOM     12  O           0     134.623 133.623 144.430  0.00  0.00    -0.322 OA
ATOM     13  C           0     135.799 134.335 144.080  0.00  0.00     0.311 C 
ATOM     14  O           0     136.343 133.959 142.828  0.00  0.00    -0.319 OA
ATOM     15  C           0     135.418 131.755 143.139  0.00  0.00     0.134 C 
ATOM     16  C           0     136.683 132.576 142.828  0.00  0.00     0.198 C 
ATOM     17  C           0     137.748 132.279 143.878  0.00  0.00     0.182 C 
ATOM     18  H           0     136.366 131.648 148.751  0.00  0.00     0.180 HD
ATOM     19  H           0     139.117 132.225 146.095  0.00  0.00     0.178 HD
ENDROOT
BRANCH  15  20
ATOM     20  O           0     135.749 130.367 143.202  0.00  0.00    -0.382 OA
ATOM     21  H           0     134.957 129.904 143.508  0.00  0.00     0.210 HD
ENDBRANCH  15  20
BRANCH  15  22
ATOM     22  C           0     134.357 131.989 142.061  0.00  0.00     0.207 C 
BRANCH  22  23
ATOM     23  O           0     133.236 131.138 142.306  0.00  0.00    -0.398 OA
ATOM     24  H           0     133.584 130.243 142.422  0.00  0.00     0.209 HD
ENDBRANCH  22  23
ENDBRANCH  15  22
BRANCH  17  25
ATOM     25  O           0     138.937 133.009 143.576  0.00  0.00    -0.390 OA
ATOM     26  H           0     138.868 133.858 144.035  0.00  0.00     0.210 HD
ENDBRANCH  17  25
BRANCH   6  27
ATOM     27  O           0     134.304 131.544 147.312  0.00  0.00    -0.376 OA
ATOM     28  H           0     134.301 130.777 146.720  0.00  0.00     0.212 HD
ENDBRANCH   6  27
BRANCH  13  29
ATOM     29  O           0     135.456 135.719 143.984  0.00  0.00    -0.341 OA
ATOM     30  H           0     135.835 136.155 144.758  0.00  0.00     0.215 HD
ENDBRANCH  13  29
BRANCH   9  31
ATOM     31  O           0     136.323 134.625 146.434  0.00  0.00    -0.385 OA
ATOM     32  H           0     136.600 135.543 146.555  0.00  0.00     0.210 HD
ENDBRANCH   9  31
TORSDOF 7
ENDMDL
MODEL 7
REMARK VINA RESULT:      -6.7      3.212      5.314
REMARK  7 active torsions:
REMARK  status: ('A' for Active; 'I' for Inactive)
REMARK    1  A    between atoms: C_6  and  O_7 
REMARK    2  A    between atoms: C_10  and  O_11 
REMARK    3  A    between atoms: C_15  and  O_16 
REMARK    4  A    between atoms: C_18  and  O_19 
REMARK    5  A    between atoms: C_18  and  C_20 
REMARK    6  A    between atoms: C_20  and  O_21 
REMARK    7  A    between atoms: C_23  and  O_24 
ROOT
ATOM      1  N           0     140.081 131.681 148.241  0.00  0.00    -0.235 N 
ATOM      2  H           0     140.947 131.255 148.140  0.00  0.00     0.174 HD
ATOM      3  H           0     139.596 131.604 149.077  0.00  0.00     0.174 HD
ATOM      4  C           0     139.571 132.360 147.252  0.00  0.00     0.670 C 
ATOM      5  N           0     140.235 132.497 146.044  0.00  0.00    -0.200 N 
ATOM      6  C           0     139.445 132.379 144.806  0.00  0.00     0.244 C 
ATOM      7  C           0     138.214 133.282 144.932  0.00  0.00     0.101 C 
ATOM      8  C           0     137.444 132.893 146.201  0.00  0.00     0.119 C 
ATOM      9  C           0     136.948 131.451 146.028  0.00  0.00     0.243 C 
ATOM     10  N           0     138.331 132.980 147.355  0.00  0.00    -0.211 N 
ATOM     11  C           0     137.300 133.110 143.720  0.00  0.00     0.177 C 
ATOM     12  O           0     136.815 131.775 143.629  0.00  0.00    -0.322 OA
ATOM     13  C           0     136.057 131.442 144.781  0.00  0.00     0.311 C 
ATOM     14  O           0     134.928 132.273 144.981  0.00  0.00    -0.319 OA
ATOM     15  C           0     136.103 134.060 143.870  0.00  0.00     0.134 C 
ATOM     16  C           0     135.330 133.631 145.131  0.00  0.00     0.198 C 
ATOM     17  C           0     136.225 133.801 146.353  0.00  0.00     0.182 C 
ATOM     18  H           0     141.189 132.666 146.013  0.00  0.00     0.180 HD
ATOM     19  H           0     138.071 133.454 148.160  0.00  0.00     0.178 HD
ENDROOT
BRANCH  15  20
ATOM     20  O           0     136.566 135.402 144.024  0.00  0.00    -0.382 OA
ATOM     21  H           0     135.945 135.847 144.617  0.00  0.00     0.210 HD
ENDBRANCH  15  20
BRANCH  15  22
ATOM     22  C           0     135.203 133.959 142.637  0.00  0.00     0.207 C 
BRANCH  22  23
ATOM     23  O           0     135.962 133.460 141.534  0.00  0.00    -0.398 OA
ATOM     24  H           0     136.387 134.223 141.119  0.00  0.00     0.209 HD
ENDBRANCH  22  23
ENDBRANCH  15  22
BRANCH  17  25
ATOM     25  O           0     135.502 133.439 147.531  0.00  0.00    -0.390 OA
ATOM     26  H           0     135.874 132.601 147.840  0.00  0.00     0.210 HD
ENDBRANCH  17  25
BRANCH   6  27
ATOM     27  O           0     140.234 132.795 143.689  0.00  0.00    -0.376 OA
ATOM     28  H           0     139.678 133.383 143.158  0.00  0.00     0.212 HD
ENDBRANCH   6  27
BRANCH  13  29
ATOM     29  O           0     135.566 130.111 144.607  0.00  0.00    -0.341 OA
ATOM     30  H           0     134.638 130.187 144.351  0.00  0.00     0.215 HD
ENDBRANCH  13  29
BRANCH   9  31
ATOM     31  O           0     138.059 130.569 145.846  0.00  0.00    -0.385 OA
ATOM     32  H           0     137.843 130.000 145.095  0.00  0.00     0.210 HD
ENDBRANCH   9  31
TORSDOF 7
ENDMDL
MODEL 8
REMARK VINA RESULT:      -6.5      3.309      5.214
REMARK  7 active torsions:
REMARK  status: ('A' for Active; 'I' for Inactive)
REMARK    1  A    between atoms: C_6  and  O_7 
REMARK    2  A    between atoms: C_10  and  O_11 
REMARK    3  A    between atoms: C_15  and  O_16 
REMARK    4  A    between atoms: C_18  and  O_19 
REMARK    5  A    between atoms: C_18  and  C_20 
REMARK    6  A    between atoms: C_20  and  O_21 
REMARK    7  A    between atoms: C_23  and  O_24 
ROOT
ATOM      1  N           0     138.928 129.488 147.945  0.00  0.00    -0.235 N 
ATOM      2  H           0     138.646 128.925 148.683  0.00  0.00     0.174 HD
ATOM      3  H           0     139.840 129.817 147.906  0.00  0.00     0.174 HD
ATOM      4  C           0     138.082 129.800 147.004  0.00  0.00     0.670 C 
ATOM      5  N           0     136.773 129.346 147.022  0.00  0.00    -0.200 N 
ATOM      6  C           0     135.710 130.294 146.648  0.00  0.00     0.244 C 
ATOM      7  C           0     136.105 130.968 145.331  0.00  0.00     0.101 C 
ATOM      8  C           0     137.484 131.616 145.502  0.00  0.00     0.119 C 
ATOM      9  C           0     137.361 132.714 146.567  0.00  0.00     0.243 C 
ATOM     10  N           0     138.446 130.609 145.933  0.00  0.00    -0.211 N 
ATOM     11  C           0     135.088 132.045 144.957  0.00  0.00     0.177 C 
ATOM     12  O           0     135.046 133.073 145.940  0.00  0.00    -0.322 OA
ATOM     13  C           0     136.311 133.706 146.052  0.00  0.00     0.311 C 
ATOM     14  O           0     136.756 134.309 144.851  0.00  0.00    -0.319 OA
ATOM     15  C           0     135.502 132.664 143.614  0.00  0.00     0.134 C 
ATOM     16  C           0     136.873 133.335 143.818  0.00  0.00     0.198 C 
ATOM     17  C           0     137.903 132.273 144.187  0.00  0.00     0.182 C 
ATOM     18  H           0     136.564 128.432 147.270  0.00  0.00     0.180 HD
ATOM     19  H           0     139.303 130.503 145.491  0.00  0.00     0.178 HD
ENDROOT
BRANCH  15  20
ATOM     20  O           0     135.609 131.642 142.622  0.00  0.00    -0.382 OA
ATOM     21  H           0     135.388 132.050 141.774  0.00  0.00     0.210 HD
ENDBRANCH  15  20
BRANCH  15  22
ATOM     22  C           0     134.464 133.702 143.180  0.00  0.00     0.207 C 
BRANCH  22  23
ATOM     23  O           0     135.126 134.803 142.555  0.00  0.00    -0.398 OA
ATOM     24  H           0     134.783 134.859 141.653  0.00  0.00     0.209 HD
ENDBRANCH  22  23
ENDBRANCH  15  22
BRANCH  17  25
ATOM     25  O           0     139.185 132.883 144.343  0.00  0.00    -0.390 OA
ATOM     26  H           0     139.176 133.692 143.813  0.00  0.00     0.210 HD
ENDBRANCH  17  25
BRANCH   6  27
ATOM     27  O           0     134.476 129.593 146.479  0.00  0.00    -0.376 OA
ATOM     28  H           0     134.702 128.688 146.221  0.00  0.00     0.212 HD
ENDBRANCH   6  27
BRANCH  13  29
ATOM     29  O           0     136.189 134.750 147.019  0.00  0.00    -0.341 OA
ATOM     30  H           0     136.875 135.400 146.816  0.00  0.00     0.215 HD
ENDBRANCH  13  29
BRANCH   9  31
ATOM     31  O           0     136.935 132.147 147.808  0.00  0.00    -0.385 OA
ATOM     32  H           0     136.015 132.416 147.937  0.00  0.00     0.210 HD
ENDBRANCH   9  31
TORSDOF 7
ENDMDL
MODEL 9
REMARK VINA RESULT:      -6.4      9.170     10.923
REMARK  7 active torsions:
REMARK  status: ('A' for Active; 'I' for Inactive)
REMARK    1  A    between atoms: C_6  and  O_7 
REMARK    2  A    between atoms: C_10  and  O_11 
REMARK    3  A    between atoms: C_15  and  O_16 
REMARK    4  A    between atoms: C_18  and  O_19 
REMARK    5  A    between atoms: C_18  and  C_20 
REMARK    6  A    between atoms: C_20  and  O_21 
REMARK    7  A    between atoms: C_23  and  O_24 
ROOT
ATOM      1  N           0     129.891 131.670 136.700  0.00  0.00    -0.235 N 
ATOM      2  H           0     129.641 130.748 136.529  0.00  0.00     0.174 HD
ATOM      3  H           0     129.409 132.188 137.364  0.00  0.00     0.174 HD
ATOM      4  C           0     130.876 132.211 136.041  0.00  0.00     0.670 C 
ATOM      5  N           0     131.591 131.502 135.089  0.00  0.00    -0.200 N 
ATOM      6  C           0     131.942 132.194 133.836  0.00  0.00     0.244 C 
ATOM      7  C           0     132.570 133.545 134.190  0.00  0.00     0.101 C 
ATOM      8  C           0     131.592 134.326 135.078  0.00  0.00     0.119 C 
ATOM      9  C           0     130.326 134.602 134.256  0.00  0.00     0.243 C 
ATOM     10  N           0     131.259 133.530 136.254  0.00  0.00    -0.211 N 
ATOM     11  C           0     132.849 134.352 132.923  0.00  0.00     0.177 C 
ATOM     12  O           0     131.644 134.637 132.221  0.00  0.00    -0.322 OA
ATOM     13  C           0     130.769 135.407 133.029  0.00  0.00     0.311 C 
ATOM     14  O           0     131.310 136.652 133.431  0.00  0.00    -0.319 OA
ATOM     15  C           0     133.512 135.678 133.323  0.00  0.00     0.134 C 
ATOM     16  C           0     132.501 136.456 134.187  0.00  0.00     0.198 C 
ATOM     17  C           0     132.214 135.668 135.460  0.00  0.00     0.182 C 
ATOM     18  H           0     131.853 130.582 135.242  0.00  0.00     0.180 HD
ATOM     19  H           0     131.308 133.902 137.148  0.00  0.00     0.178 HD
ENDROOT
BRANCH  15  20
ATOM     20  O           0     134.694 135.419 134.083  0.00  0.00    -0.382 OA
ATOM     21  H           0     135.196 134.748 133.600  0.00  0.00     0.210 HD
ENDBRANCH  15  20
BRANCH  15  22
ATOM     22  C           0     133.865 136.480 132.069  0.00  0.00     0.207 C 
BRANCH  22  23
ATOM     23  O           0     133.704 137.874 132.336  0.00  0.00    -0.398 OA
ATOM     24  H           0     134.410 138.333 131.860  0.00  0.00     0.209 HD
ENDBRANCH  22  23
ENDBRANCH  15  22
BRANCH  17  25
ATOM     25  O           0     131.305 136.401 136.282  0.00  0.00    -0.390 OA
ATOM     26  H           0     131.367 136.025 137.171  0.00  0.00     0.210 HD
ENDBRANCH  17  25
BRANCH   6  27
ATOM     27  O           0     132.880 131.406 133.098  0.00  0.00    -0.376 OA
ATOM     28  H           0     132.896 131.762 132.198  0.00  0.00     0.212 HD
ENDBRANCH   6  27
BRANCH  13  29
ATOM     29  O           0     129.603 135.694 132.254  0.00  0.00    -0.341 OA
ATOM     30  H           0     129.878 136.292 131.547  0.00  0.00     0.215 HD
ENDBRANCH  13  29
BRANCH   9  31
ATOM     31  O           0     129.730 133.369 133.846  0.00  0.00    -0.385 OA
ATOM     32  H           0     130.286 132.660 134.195  0.00  0.00     0.210 HD
ENDBRANCH   9  31
TORSDOF 7
ENDMDL
