# created with PyMOL 2.3.4
@<TRIPOS>MOLECULE
ligand_out_0001
33 35 1                 
SMALL
USER_CHARGES
@<TRIPOS>ATOM
1	   N	131.698	132.160	134.972	N.3	1	UNK0	-0.235	
2	   N	131.282	134.337	135.758	N.3	1	UNK0	-0.218	
3	   N	131.130	136.996	134.200	N.3	1	UNK0	-0.216	
4	   N	130.496	137.595	132.001	N.3	1	UNK0	-0.235	
5	   N	132.021	135.844	132.455	N.3	1	UNK0	-0.191	
6	   N	132.659	134.009	133.901	N.3	1	UNK0	-0.179	
7	   N	133.534	136.054	139.474	N.pl3	1	UNK0	-0.346	
8	   C	131.873	133.448	134.878	C.3	1	UNK0	0.672	
9	   C	131.960	135.603	136.025	C.3	1	UNK0	0.151	
10	   C	132.335	136.341	134.755	C.3	1	UNK0	0.180	
11	   C	131.174	136.857	132.834	C.3	1	UNK0	0.670	
12	   C	132.810	135.439	133.628	C.3	1	UNK0	0.217	
13	   C	133.556	133.308	132.970	C.3	1	UNK0	0.106	
14	   C	132.784	132.883	131.720	C.3	1	UNK0	0.033	
15	   C	134.670	134.306	132.589	C.3	1	UNK0	0.098	
16	   C	134.314	135.619	133.341	C.3	1	UNK0	0.210	
17	   C	133.232	135.323	136.826	C.2	1	UNK0	0.208	
18	   C	132.959	134.869	139.192	C.2	1	UNK0	0.358	
19	   O	132.926	134.421	137.923	O.2	1	UNK0	-0.302	
20	   O	132.469	134.204	140.083	O.co2	1	UNK0	-0.239	
21	   O	134.547	136.758	132.510	O.2	1	UNK0	-0.362	
22	   O	135.051	135.721	134.561	O.2	1	UNK0	-0.362	
23	   H	131.139	131.796	135.676	 H	1	UNK0	0.174	
24	   H	132.124	131.565	134.335	 H	1	UNK0	0.174	
25	   H	129.914	138.296	132.336	 H	1	UNK0	0.174	
26	   H	130.573	137.444	131.046	 H	1	UNK0	0.174	
27	   H	130.438	134.124	136.187	 H	1	UNK0	0.178	
28	   H	130.435	137.443	134.709	 H	1	UNK0	0.178	
29	   H	132.088	135.465	131.565	 H	1	UNK0	0.180	
30	   H	133.926	136.585	138.762	 H	1	UNK0	0.161	
31	   H	133.558	136.376	140.389	 H	1	UNK0	0.161	
32	   H	135.161	137.331	132.988	 H	1	UNK0	0.213	
33	   H	135.163	134.820	134.895	 H	1	UNK0	0.213	
@<TRIPOS>BOND
1 1 8 1
2 1 23 1
3 1 24 1
4 2 9 1
5 2 27 1
6 3 11 1
7 3 28 1
8 4 25 1
9 4 26 1
10 5 29 1
11 6 13 1
12 7 30 1
13 7 31 1
14 2 8 1
15 6 8 1
16 9 10 1
17 9 17 1
18 3 10 1
19 10 12 1
20 4 11 1
21 5 11 1
22 5 12 1
23 6 12 1
24 12 16 1
25 13 14 1
26 13 15 1
27 15 16 1
28 16 21 2
29 16 22 2
30 17 19 2
31 7 18 1
32 18 20 2
33 18 19 2
34 21 32 1
35 22 33 1
@<TRIPOS>SUBSTRUCTURE
1	UNK0	1	GROUP	1 ****	UNK
