MODEL 1
REMARK VINA RESULT:      -7.1      0.000      0.000
REMARK  5 active torsions:
REMARK  status: ('A' for Active; 'I' for Inactive)
REMARK    1  A    between atoms: C_6  and  C_7 
REMARK    2  A    between atoms: C_7  and  O_8 
REMARK    3  A    between atoms: O_8  and  C_9 
REMARK       I    between atoms: C_9  and  N_10 
REMARK    4  A    between atoms: C_24  and  O_25 
REMARK    5  A    between atoms: C_24  and  O_26 
ROOT
ATOM      1  N           0     131.593 132.183 134.983  0.00  0.00    -0.235 N 
ATOM      2  H           0     131.025 131.831 135.686  0.00  0.00     0.174 HD
ATOM      3  H           0     132.005 131.580 134.344  0.00  0.00     0.174 HD
ATOM      4  C           0     131.797 133.467 134.892  0.00  0.00     0.672 C 
ATOM      5  N           0     131.226 134.367 135.774  0.00  0.00    -0.218 N 
ATOM      6  C           0     131.932 135.617 136.044  0.00  0.00     0.151 C 
ATOM      7  C           0     132.324 136.349 134.776  0.00  0.00     0.180 C 
ATOM      8  N           0     131.135 137.033 134.223  0.00  0.00    -0.216 N 
ATOM      9  C           0     131.175 136.896 132.856  0.00  0.00     0.670 C 
ATOM     10  N           0     130.514 137.652 132.025  0.00  0.00    -0.235 N 
ATOM     11  H           0     129.948 138.364 132.362  0.00  0.00     0.174 HD
ATOM     12  H           0     130.587 137.502 131.070  0.00  0.00     0.174 HD
ATOM     13  C           0     132.779 135.439 133.647  0.00  0.00     0.217 C 
ATOM     14  N           0     131.999 135.866 132.475  0.00  0.00    -0.191 N 
ATOM     15  N           0     132.596 134.013 133.916  0.00  0.00    -0.179 N 
ATOM     16  C           0     133.476 133.294 132.984  0.00  0.00     0.106 C 
ATOM     17  C           0     132.695 132.890 131.732  0.00  0.00     0.033 C 
ATOM     18  C           0     134.613 134.268 132.605  0.00  0.00     0.098 C 
ATOM     19  C           0     134.286 135.586 133.360  0.00  0.00     0.210 C 
ATOM     20  H           0     130.378 134.173 136.203  0.00  0.00     0.178 HD
ATOM     21  H           0     130.450 137.494 134.733  0.00  0.00     0.178 HD
ATOM     22  H           0     132.058 135.487 131.584  0.00  0.00     0.180 HD
ENDROOT
BRANCH   6  23
ATOM     23  C           0     133.198 135.306 136.845  0.00  0.00     0.208 C 
BRANCH  23  24
ATOM     24  O           0     132.869 134.422 137.949  0.00  0.00    -0.302 OA
BRANCH  24  25
ATOM     25  C           0     132.997 134.853 139.218  0.00  0.00     0.358 C 
ATOM     26  N           0     133.558 136.052 139.470  0.00  0.00    -0.346 N 
ATOM     27  H           0     133.871 136.604 138.736  0.00  0.00     0.161 HD
ATOM     28  H           0     133.650 136.361 140.385  0.00  0.00     0.161 HD
ATOM     29  O           0     132.606 134.160 140.137  0.00  0.00    -0.239 OA
ENDBRANCH  24  25
ENDBRANCH  23  24
ENDBRANCH   6  23
BRANCH  19  30
ATOM     30  O           0     134.545 136.722 132.532  0.00  0.00    -0.362 OA
ATOM     31  H           0     133.691 137.133 132.347  0.00  0.00     0.213 HD
ENDBRANCH  19  30
BRANCH  19  32
ATOM     32  O           0     135.025 135.668 134.581  0.00  0.00    -0.362 OA
ATOM     33  H           0     134.437 136.066 135.237  0.00  0.00     0.213 HD
ENDBRANCH  19  32
TORSDOF 5
ENDMDL
MODEL 2
REMARK VINA RESULT:      -7.0      8.523     13.185
REMARK  5 active torsions:
REMARK  status: ('A' for Active; 'I' for Inactive)
REMARK    1  A    between atoms: C_6  and  C_7 
REMARK    2  A    between atoms: C_7  and  O_8 
REMARK    3  A    between atoms: O_8  and  C_9 
REMARK       I    between atoms: C_9  and  N_10 
REMARK    4  A    between atoms: C_24  and  O_25 
REMARK    5  A    between atoms: C_24  and  O_26 
ROOT
ATOM      1  N           0     139.542 130.569 146.132  0.00  0.00    -0.235 N 
ATOM      2  H           0     140.276 130.694 145.510  0.00  0.00     0.174 HD
ATOM      3  H           0     139.584 129.864 146.797  0.00  0.00     0.174 HD
ATOM      4  C           0     138.502 131.353 146.079  0.00  0.00     0.672 C 
ATOM      5  N           0     138.399 132.376 145.153  0.00  0.00    -0.218 N 
ATOM      6  C           0     137.066 132.778 144.709  0.00  0.00     0.151 C 
ATOM      7  C           0     136.129 133.061 145.867  0.00  0.00     0.180 C 
ATOM      8  N           0     136.443 134.392 146.431  0.00  0.00    -0.216 N 
ATOM      9  C           0     136.343 134.297 147.798  0.00  0.00     0.670 C 
ATOM     10  N           0     136.196 135.319 148.594  0.00  0.00    -0.235 N 
ATOM     11  H           0     136.151 136.216 148.228  0.00  0.00     0.174 HD
ATOM     12  H           0     136.131 135.182 149.551  0.00  0.00     0.174 HD
ATOM     13  C           0     136.292 132.117 147.046  0.00  0.00     0.217 C 
ATOM     14  N           0     136.416 132.993 148.221  0.00  0.00    -0.191 N 
ATOM     15  N           0     137.437 131.213 146.935  0.00  0.00    -0.179 N 
ATOM     16  C           0     137.188 130.106 147.870  0.00  0.00     0.106 C 
ATOM     17  C           0     137.874 130.387 149.209  0.00  0.00     0.033 C 
ATOM     18  C           0     135.659 130.025 148.067  0.00  0.00     0.098 C 
ATOM     19  C           0     135.077 131.182 147.209  0.00  0.00     0.210 C 
ATOM     20  H           0     139.191 132.815 144.808  0.00  0.00     0.178 HD
ATOM     21  H           0     136.678 135.187 145.928  0.00  0.00     0.178 HD
ATOM     22  H           0     136.526 132.700 149.140  0.00  0.00     0.180 HD
ENDROOT
BRANCH   6  23
ATOM     23  C           0     136.471 131.656 143.856  0.00  0.00     0.208 C 
BRANCH  23  24
ATOM     24  O           0     135.197 132.088 143.309  0.00  0.00    -0.302 OA
BRANCH  24  25
ATOM     25  C           0     135.153 133.089 142.411  0.00  0.00     0.358 C 
ATOM     26  N           0     135.852 132.995 141.263  0.00  0.00    -0.346 N 
ATOM     27  H           0     136.388 132.206 141.084  0.00  0.00     0.161 HD
ATOM     28  H           0     135.821 133.718 140.616  0.00  0.00     0.161 HD
ATOM     29  O           0     134.483 134.078 142.635  0.00  0.00    -0.239 OA
ENDBRANCH  24  25
ENDBRANCH  23  24
ENDBRANCH   6  23
BRANCH  19  30
ATOM     30  O           0     134.011 131.838 147.898  0.00  0.00    -0.362 OA
ATOM     31  H           0     133.906 132.706 147.487  0.00  0.00     0.213 HD
ENDBRANCH  19  30
BRANCH  19  32
ATOM     32  O           0     134.640 130.700 145.937  0.00  0.00    -0.362 OA
ATOM     33  H           0     134.714 129.736 145.963  0.00  0.00     0.213 HD
ENDBRANCH  19  32
TORSDOF 5
ENDMDL
MODEL 3
REMARK VINA RESULT:      -7.0     12.303     14.238
REMARK  5 active torsions:
REMARK  status: ('A' for Active; 'I' for Inactive)
REMARK    1  A    between atoms: C_6  and  C_7 
REMARK    2  A    between atoms: C_7  and  O_8 
REMARK    3  A    between atoms: O_8  and  C_9 
REMARK       I    between atoms: C_9  and  N_10 
REMARK    4  A    between atoms: C_24  and  O_25 
REMARK    5  A    between atoms: C_24  and  O_26 
ROOT
ATOM      1  N           0     134.145 131.930 149.250  0.00  0.00    -0.235 N 
ATOM      2  H           0     133.704 131.596 150.047  0.00  0.00     0.174 HD
ATOM      3  H           0     133.988 132.841 148.956  0.00  0.00     0.174 HD
ATOM      4  C           0     134.952 131.158 148.579  0.00  0.00     0.672 C 
ATOM      5  N           0     135.212 129.855 148.963  0.00  0.00    -0.218 N 
ATOM      6  C           0     135.559 128.883 147.930  0.00  0.00     0.151 C 
ATOM      7  C           0     136.679 129.366 147.030  0.00  0.00     0.180 C 
ATOM      8  N           0     137.970 129.213 147.737  0.00  0.00    -0.216 N 
ATOM      9  C           0     138.734 130.318 147.449  0.00  0.00     0.670 C 
ATOM     10  N           0     140.029 130.369 147.590  0.00  0.00    -0.235 N 
ATOM     11  H           0     140.512 129.594 147.918  0.00  0.00     0.174 HD
ATOM     12  H           0     140.509 131.181 147.368  0.00  0.00     0.174 HD
ATOM     13  C           0     136.618 130.848 146.700  0.00  0.00     0.217 C 
ATOM     14  N           0     137.965 131.360 146.993  0.00  0.00    -0.191 N 
ATOM     15  N           0     135.596 131.585 147.443  0.00  0.00    -0.179 N 
ATOM     16  C           0     135.357 132.832 146.702  0.00  0.00     0.106 C 
ATOM     17  C           0     136.216 133.958 147.281  0.00  0.00     0.033 C 
ATOM     18  C           0     135.759 132.562 145.236  0.00  0.00     0.098 C 
ATOM     19  C           0     136.270 131.095 145.219  0.00  0.00     0.210 C 
ATOM     20  H           0     135.165 129.593 149.896  0.00  0.00     0.178 HD
ATOM     21  H           0     138.229 128.468 148.301  0.00  0.00     0.178 HD
ATOM     22  H           0     138.262 132.277 146.882  0.00  0.00     0.180 HD
ENDROOT
BRANCH   6  23
ATOM     23  C           0     134.321 128.610 147.073  0.00  0.00     0.208 C 
BRANCH  23  24
ATOM     24  O           0     133.237 128.148 147.921  0.00  0.00    -0.302 OA
BRANCH  24  25
ATOM     25  C           0     132.298 127.321 147.423  0.00  0.00     0.358 C 
ATOM     26  N           0     132.642 126.088 147.002  0.00  0.00    -0.346 N 
ATOM     27  H           0     133.567 125.797 147.055  0.00  0.00     0.161 HD
ATOM     28  H           0     131.966 125.492 146.643  0.00  0.00     0.161 HD
ATOM     29  O           0     131.141 127.685 147.356  0.00  0.00    -0.239 OA
ENDBRANCH  24  25
ENDBRANCH  23  24
ENDBRANCH   6  23
BRANCH  19  30
ATOM     30  O           0     137.428 130.971 144.390  0.00  0.00    -0.362 OA
ATOM     31  H           0     137.253 131.483 143.589  0.00  0.00     0.213 HD
ENDBRANCH  19  30
BRANCH  19  32
ATOM     32  O           0     135.239 130.203 144.789  0.00  0.00    -0.362 OA
ATOM     33  H           0     134.858 129.812 145.586  0.00  0.00     0.213 HD
ENDBRANCH  19  32
TORSDOF 5
ENDMDL
MODEL 4
REMARK VINA RESULT:      -6.8      9.765     13.629
REMARK  5 active torsions:
REMARK  status: ('A' for Active; 'I' for Inactive)
REMARK    1  A    between atoms: C_6  and  C_7 
REMARK    2  A    between atoms: C_7  and  O_8 
REMARK    3  A    between atoms: O_8  and  C_9 
REMARK       I    between atoms: C_9  and  N_10 
REMARK    4  A    between atoms: C_24  and  O_25 
REMARK    5  A    between atoms: C_24  and  O_26 
ROOT
ATOM      1  N           0     135.958 134.472 147.015  0.00  0.00    -0.235 N 
ATOM      2  H           0     135.408 135.112 146.537  0.00  0.00     0.174 HD
ATOM      3  H           0     136.552 134.775 147.720  0.00  0.00     0.174 HD
ATOM      4  C           0     135.895 133.205 146.716  0.00  0.00     0.672 C 
ATOM      5  N           0     135.059 132.725 145.724  0.00  0.00    -0.218 N 
ATOM      6  C           0     135.453 131.512 145.011  0.00  0.00     0.151 C 
ATOM      7  C           0     135.811 130.376 145.949  0.00  0.00     0.180 C 
ATOM      8  N           0     134.568 129.773 146.477  0.00  0.00    -0.216 N 
ATOM      9  C           0     134.778 129.483 147.803  0.00  0.00     0.670 C 
ATOM     10  N           0     134.062 128.637 148.490  0.00  0.00    -0.235 N 
ATOM     11  H           0     133.326 128.167 148.066  0.00  0.00     0.174 HD
ATOM     12  H           0     134.264 128.478 149.425  0.00  0.00     0.174 HD
ATOM     13  C           0     136.562 130.812 147.196  0.00  0.00     0.217 C 
ATOM     14  N           0     135.835 130.193 148.316  0.00  0.00    -0.191 N 
ATOM     15  N           0     136.657 132.263 147.362  0.00  0.00    -0.179 N 
ATOM     16  C           0     137.761 132.505 148.302  0.00  0.00     0.106 C 
ATOM     17  C           0     137.217 132.642 149.726  0.00  0.00     0.033 C 
ATOM     18  C           0     138.699 131.283 148.211  0.00  0.00     0.098 C 
ATOM     19  C           0     138.026 130.329 147.186  0.00  0.00     0.210 C 
ATOM     20  H           0     134.231 133.181 145.508  0.00  0.00     0.178 HD
ATOM     21  H           0     133.752 129.611 145.977  0.00  0.00     0.178 HD
ATOM     22  H           0     136.065 130.270 149.255  0.00  0.00     0.180 HD
ENDROOT
BRANCH   6  23
ATOM     23  C           0     136.666 131.828 144.134  0.00  0.00     0.208 C 
BRANCH  23  24
ATOM     24  O           0     136.285 132.776 143.103  0.00  0.00    -0.302 OA
BRANCH  24  25
ATOM     25  C           0     136.801 134.019 143.107  0.00  0.00     0.358 C 
ATOM     26  N           0     137.871 134.308 142.340  0.00  0.00    -0.346 N 
ATOM     27  H           0     138.270 133.619 141.786  0.00  0.00     0.161 HD
ATOM     28  H           0     138.243 135.204 142.344  0.00  0.00     0.161 HD
ATOM     29  O           0     136.301 134.882 143.801  0.00  0.00    -0.239 OA
ENDBRANCH  24  25
ENDBRANCH  23  24
ENDBRANCH   6  23
BRANCH  19  30
ATOM     30  O           0     138.124 128.970 147.617  0.00  0.00    -0.362 OA
ATOM     31  H           0     137.597 128.443 147.001  0.00  0.00     0.213 HD
ENDBRANCH  19  30
BRANCH  19  32
ATOM     32  O           0     138.600 130.493 145.888  0.00  0.00    -0.362 OA
ATOM     33  H           0     139.527 130.228 145.957  0.00  0.00     0.213 HD
ENDBRANCH  19  32
TORSDOF 5
ENDMDL
MODEL 5
REMARK VINA RESULT:      -6.8      2.229      3.222
REMARK  5 active torsions:
REMARK  status: ('A' for Active; 'I' for Inactive)
REMARK    1  A    between atoms: C_6  and  C_7 
REMARK    2  A    between atoms: C_7  and  O_8 
REMARK    3  A    between atoms: O_8  and  C_9 
REMARK       I    between atoms: C_9  and  N_10 
REMARK    4  A    between atoms: C_24  and  O_25 
REMARK    5  A    between atoms: C_24  and  O_26 
ROOT
ATOM      1  N           0     133.901 132.389 132.761  0.00  0.00    -0.235 N 
ATOM      2  H           0     133.766 131.573 132.253  0.00  0.00     0.174 HD
ATOM      3  H           0     134.796 132.744 132.880  0.00  0.00     0.174 HD
ATOM      4  C           0     132.879 133.011 133.279  0.00  0.00     0.672 C 
ATOM      5  N           0     131.584 132.547 133.131  0.00  0.00    -0.218 N 
ATOM      6  C           0     130.614 132.854 134.178  0.00  0.00     0.151 C 
ATOM      7  C           0     130.574 134.330 134.521  0.00  0.00     0.180 C 
ATOM      8  N           0     129.814 135.051 133.477  0.00  0.00    -0.216 N 
ATOM      9  C           0     130.459 136.240 133.239  0.00  0.00     0.670 C 
ATOM     10  N           0     129.905 137.272 132.666  0.00  0.00    -0.235 N 
ATOM     11  H           0     128.980 137.228 132.378  0.00  0.00     0.174 HD
ATOM     12  H           0     130.419 138.083 132.528  0.00  0.00     0.174 HD
ATOM     13  C           0     131.935 135.007 134.513  0.00  0.00     0.217 C 
ATOM     14  N           0     131.759 136.207 133.680  0.00  0.00    -0.191 N 
ATOM     15  N           0     133.020 134.165 134.009  0.00  0.00    -0.179 N 
ATOM     16  C           0     134.273 134.765 134.490  0.00  0.00     0.106 C 
ATOM     17  C           0     134.852 135.696 133.422  0.00  0.00     0.033 C 
ATOM     18  C           0     133.922 135.572 135.758  0.00  0.00     0.098 C 
ATOM     19  C           0     132.386 135.410 135.931  0.00  0.00     0.210 C 
ATOM     20  H           0     131.327 132.032 132.350  0.00  0.00     0.178 HD
ATOM     21  H           0     129.006 134.740 133.039  0.00  0.00     0.178 HD
ATOM     22  H           0     132.443 136.865 133.479  0.00  0.00     0.180 HD
ENDROOT
BRANCH   6  23
ATOM     23  C           0     130.980 132.065 135.437  0.00  0.00     0.208 C 
BRANCH  23  24
ATOM     24  O           0     130.158 132.514 136.546  0.00  0.00    -0.302 OA
BRANCH  24  25
ATOM     25  C           0     130.285 131.936 137.756  0.00  0.00     0.358 C 
ATOM     26  N           0     130.894 132.599 138.759  0.00  0.00    -0.346 N 
ATOM     27  H           0     131.242 133.492 138.609  0.00  0.00     0.161 HD
ATOM     28  H           0     130.985 132.181 139.630  0.00  0.00     0.161 HD
ATOM     29  O           0     129.849 130.818 137.943  0.00  0.00    -0.239 OA
ENDBRANCH  24  25
ENDBRANCH  23  24
ENDBRANCH   6  23
BRANCH  19  30
ATOM     30  O           0     131.789 136.645 136.332  0.00  0.00    -0.362 OA
ATOM     31  H           0     132.041 137.304 135.671  0.00  0.00     0.213 HD
ENDBRANCH  19  30
BRANCH  19  32
ATOM     32  O           0     132.087 134.373 136.867  0.00  0.00    -0.362 OA
ATOM     33  H           0     132.863 134.278 137.437  0.00  0.00     0.213 HD
ENDBRANCH  19  32
TORSDOF 5
ENDMDL
MODEL 6
REMARK VINA RESULT:      -6.7      2.758      4.937
REMARK  5 active torsions:
REMARK  status: ('A' for Active; 'I' for Inactive)
REMARK    1  A    between atoms: C_6  and  C_7 
REMARK    2  A    between atoms: C_7  and  O_8 
REMARK    3  A    between atoms: O_8  and  C_9 
REMARK       I    between atoms: C_9  and  N_10 
REMARK    4  A    between atoms: C_24  and  O_25 
REMARK    5  A    between atoms: C_24  and  O_26 
ROOT
ATOM      1  N           0     131.962 137.101 132.197  0.00  0.00    -0.235 N 
ATOM      2  H           0     131.196 137.694 132.140  0.00  0.00     0.174 HD
ATOM      3  H           0     132.630 137.103 131.494  0.00  0.00     0.174 HD
ATOM      4  C           0     132.097 136.306 133.221  0.00  0.00     0.672 C 
ATOM      5  N           0     131.174 136.271 134.252  0.00  0.00    -0.218 N 
ATOM      6  C           0     131.003 135.022 134.988  0.00  0.00     0.151 C 
ATOM      7  C           0     132.319 134.453 135.483  0.00  0.00     0.180 C 
ATOM      8  N           0     132.754 135.206 136.679  0.00  0.00    -0.216 N 
ATOM      9  C           0     134.115 135.377 136.590  0.00  0.00     0.670 C 
ATOM     10  N           0     134.884 135.665 137.602  0.00  0.00    -0.235 N 
ATOM     11  H           0     134.501 135.773 138.487  0.00  0.00     0.174 HD
ATOM     12  H           0     135.838 135.771 137.471  0.00  0.00     0.174 HD
ATOM     13  C           0     133.474 134.618 134.509  0.00  0.00     0.217 C 
ATOM     14  N           0     134.563 135.205 135.304  0.00  0.00    -0.191 N 
ATOM     15  N           0     133.161 135.447 133.344  0.00  0.00    -0.179 N 
ATOM     16  C           0     134.169 135.129 132.321  0.00  0.00     0.106 C 
ATOM     17  C           0     135.323 136.131 132.396  0.00  0.00     0.033 C 
ATOM     18  C           0     134.684 133.707 132.631  0.00  0.00     0.098 C 
ATOM     19  C           0     133.922 133.269 133.913  0.00  0.00     0.210 C 
ATOM     20  H           0     130.655 137.058 134.480  0.00  0.00     0.178 HD
ATOM     21  H           0     132.183 135.522 137.396  0.00  0.00     0.178 HD
ATOM     22  H           0     135.449 135.429 134.977  0.00  0.00     0.180 HD
ENDROOT
BRANCH   6  23
ATOM     23  C           0     130.337 133.995 134.070  0.00  0.00     0.208 C 
BRANCH  23  24
ATOM     24  O           0     129.117 134.558 133.519  0.00  0.00    -0.302 OA
BRANCH  24  25
ATOM     25  C           0     128.733 134.239 132.269  0.00  0.00     0.358 C 
ATOM     26  N           0     127.797 133.288 132.073  0.00  0.00    -0.346 N 
ATOM     27  H           0     127.402 132.833 132.833  0.00  0.00     0.161 HD
ATOM     28  H           0     127.521 133.059 131.172  0.00  0.00     0.161 HD
ATOM     29  O           0     129.228 134.809 131.318  0.00  0.00    -0.239 OA
ENDBRANCH  24  25
ENDBRANCH  23  24
ENDBRANCH   6  23
BRANCH  19  30
ATOM     30  O           0     134.793 132.574 134.807  0.00  0.00    -0.362 OA
ATOM     31  H           0     134.504 131.652 134.818  0.00  0.00     0.213 HD
ENDBRANCH  19  30
BRANCH  19  32
ATOM     32  O           0     132.789 132.465 133.579  0.00  0.00    -0.362 OA
ATOM     33  H           0     132.028 132.851 134.034  0.00  0.00     0.213 HD
ENDBRANCH  19  32
TORSDOF 5
ENDMDL
MODEL 7
REMARK VINA RESULT:      -6.6      2.666      4.084
REMARK  5 active torsions:
REMARK  status: ('A' for Active; 'I' for Inactive)
REMARK    1  A    between atoms: C_6  and  C_7 
REMARK    2  A    between atoms: C_7  and  O_8 
REMARK    3  A    between atoms: O_8  and  C_9 
REMARK       I    between atoms: C_9  and  N_10 
REMARK    4  A    between atoms: C_24  and  O_25 
REMARK    5  A    between atoms: C_24  and  O_26 
ROOT
ATOM      1  N           0     129.134 132.805 132.274  0.00  0.00    -0.235 N 
ATOM      2  H           0     128.532 132.077 132.494  0.00  0.00     0.174 HD
ATOM      3  H           0     129.021 133.293 131.442  0.00  0.00     0.174 HD
ATOM      4  C           0     130.088 133.134 133.097  0.00  0.00     0.672 C 
ATOM      5  N           0     130.284 132.474 134.298  0.00  0.00    -0.218 N 
ATOM      6  C           0     131.636 132.417 134.846  0.00  0.00     0.151 C 
ATOM      7  C           0     132.292 133.782 134.920  0.00  0.00     0.180 C 
ATOM      8  N           0     131.752 134.517 136.084  0.00  0.00    -0.216 N 
ATOM      9  C           0     131.582 135.827 135.705  0.00  0.00     0.670 C 
ATOM     10  N           0     131.473 136.822 136.541  0.00  0.00    -0.235 N 
ATOM     11  H           0     131.509 136.660 137.496  0.00  0.00     0.174 HD
ATOM     12  H           0     131.356 137.725 136.207  0.00  0.00     0.174 HD
ATOM     13  C           0     131.979 134.688 133.740  0.00  0.00     0.217 C 
ATOM     14  N           0     131.543 135.958 134.339  0.00  0.00    -0.191 N 
ATOM     15  N           0     130.966 134.155 132.828  0.00  0.00    -0.179 N 
ATOM     16  C           0     131.120 134.884 131.560  0.00  0.00     0.106 C 
ATOM     17  C           0     130.156 136.071 131.519  0.00  0.00     0.033 C 
ATOM     18  C           0     132.579 135.387 131.510  0.00  0.00     0.098 C 
ATOM     19  C           0     133.216 134.921 132.849  0.00  0.00     0.210 C 
ATOM     20  H           0     129.541 132.060 134.763  0.00  0.00     0.178 HD
ATOM     21  H           0     131.553 134.143 136.956  0.00  0.00     0.178 HD
ATOM     22  H           0     131.276 136.754 133.853  0.00  0.00     0.180 HD
ENDROOT
BRANCH   6  23
ATOM     23  C           0     132.490 131.508 133.960  0.00  0.00     0.208 C 
BRANCH  23  24
ATOM     24  O           0     133.782 131.294 134.588  0.00  0.00    -0.302 OA
BRANCH  24  25
ATOM     25  C           0     134.713 130.539 133.974  0.00  0.00     0.358 C 
ATOM     26  N           0     135.687 131.127 133.252  0.00  0.00    -0.346 N 
ATOM     27  H           0     135.717 132.093 133.174  0.00  0.00     0.161 HD
ATOM     28  H           0     136.358 130.583 132.809  0.00  0.00     0.161 HD
ATOM     29  O           0     134.674 129.329 134.071  0.00  0.00    -0.239 OA
ENDBRANCH  24  25
ENDBRANCH  23  24
ENDBRANCH   6  23
BRANCH  19  30
ATOM     30  O           0     134.058 135.940 133.392  0.00  0.00    -0.362 OA
ATOM     31  H           0     133.608 136.286 134.174  0.00  0.00     0.213 HD
ENDBRANCH  19  30
BRANCH  19  32
ATOM     32  O           0     133.942 133.704 132.669  0.00  0.00    -0.362 OA
ATOM     33  H           0     133.294 132.987 132.681  0.00  0.00     0.213 HD
ENDBRANCH  19  32
TORSDOF 5
ENDMDL
MODEL 8
REMARK VINA RESULT:      -6.6      9.627     13.653
REMARK  5 active torsions:
REMARK  status: ('A' for Active; 'I' for Inactive)
REMARK    1  A    between atoms: C_6  and  C_7 
REMARK    2  A    between atoms: C_7  and  O_8 
REMARK    3  A    between atoms: O_8  and  C_9 
REMARK       I    between atoms: C_9  and  N_10 
REMARK    4  A    between atoms: C_24  and  O_25 
REMARK    5  A    between atoms: C_24  and  O_26 
ROOT
ATOM      1  N           0     133.964 129.008 146.862  0.00  0.00    -0.235 N 
ATOM      2  H           0     133.491 128.538 146.157  0.00  0.00     0.174 HD
ATOM      3  H           0     133.707 128.878 147.788  0.00  0.00     0.174 HD
ATOM      4  C           0     134.947 129.810 146.564  0.00  0.00     0.672 C 
ATOM      5  N           0     135.354 130.022 145.259  0.00  0.00    -0.218 N 
ATOM      6  C           0     135.956 131.309 144.921  0.00  0.00     0.151 C 
ATOM      7  C           0     137.086 131.687 145.858  0.00  0.00     0.180 C 
ATOM      8  N           0     138.297 130.920 145.494  0.00  0.00    -0.216 N 
ATOM      9  C           0     138.915 130.540 146.661  0.00  0.00     0.670 C 
ATOM     10  N           0     140.164 130.175 146.742  0.00  0.00    -0.235 N 
ATOM     11  H           0     140.717 130.159 145.946  0.00  0.00     0.174 HD
ATOM     12  H           0     140.539 129.919 147.598  0.00  0.00     0.174 HD
ATOM     13  C           0     136.841 131.312 147.310  0.00  0.00     0.217 C 
ATOM     14  N           0     138.055 130.595 147.730  0.00  0.00    -0.191 N 
ATOM     15  N           0     135.643 130.500 147.526  0.00  0.00    -0.179 N 
ATOM     16  C           0     135.305 130.623 148.952  0.00  0.00     0.106 C 
ATOM     17  C           0     135.916 129.459 149.736  0.00  0.00     0.033 C 
ATOM     18  C           0     135.905 131.959 149.438  0.00  0.00     0.098 C 
ATOM     19  C           0     136.629 132.555 148.199  0.00  0.00     0.210 C 
ATOM     20  H           0     135.243 129.333 144.586  0.00  0.00     0.178 HD
ATOM     21  H           0     138.600 130.721 144.594  0.00  0.00     0.178 HD
ATOM     22  H           0     138.222 130.226 148.611  0.00  0.00     0.180 HD
ENDROOT
BRANCH   6  23
ATOM     23  C           0     134.877 132.392 144.987  0.00  0.00     0.208 C 
BRANCH  23  24
ATOM     24  O           0     135.490 133.697 144.819  0.00  0.00    -0.302 OA
BRANCH  24  25
ATOM     25  C           0     135.204 134.441 143.734  0.00  0.00     0.358 C 
ATOM     26  N           0     135.931 135.543 143.461  0.00  0.00    -0.346 N 
ATOM     27  H           0     136.659 135.801 144.048  0.00  0.00     0.161 HD
ATOM     28  H           0     135.724 136.078 142.679  0.00  0.00     0.161 HD
ATOM     29  O           0     134.292 134.118 142.999  0.00  0.00    -0.239 OA
ENDBRANCH  24  25
ENDBRANCH  23  24
ENDBRANCH   6  23
BRANCH  19  30
ATOM     30  O           0     137.878 133.140 148.573  0.00  0.00    -0.362 OA
ATOM     31  H           0     137.979 133.942 148.044  0.00  0.00     0.213 HD
ENDBRANCH  19  30
BRANCH  19  32
ATOM     32  O           0     135.798 133.510 147.536  0.00  0.00    -0.362 OA
ATOM     33  H           0     135.569 134.184 148.191  0.00  0.00     0.213 HD
ENDBRANCH  19  32
TORSDOF 5
ENDMDL
MODEL 9
REMARK VINA RESULT:      -6.6      7.732     11.884
REMARK  5 active torsions:
REMARK  status: ('A' for Active; 'I' for Inactive)
REMARK    1  A    between atoms: C_6  and  C_7 
REMARK    2  A    between atoms: C_7  and  O_8 
REMARK    3  A    between atoms: O_8  and  C_9 
REMARK       I    between atoms: C_9  and  N_10 
REMARK    4  A    between atoms: C_24  and  O_25 
REMARK    5  A    between atoms: C_24  and  O_26 
ROOT
ATOM      1  N           0     134.889 130.773 143.347  0.00  0.00    -0.235 N 
ATOM      2  H           0     134.722 130.649 142.399  0.00  0.00     0.174 HD
ATOM      3  H           0     134.383 130.262 143.998  0.00  0.00     0.174 HD
ATOM      4  C           0     135.797 131.619 143.744  0.00  0.00     0.672 C 
ATOM      5  N           0     136.549 132.364 142.853  0.00  0.00    -0.218 N 
ATOM      6  C           0     137.043 133.669 143.283  0.00  0.00     0.151 C 
ATOM      7  C           0     137.771 133.606 144.612  0.00  0.00     0.180 C 
ATOM      8  N           0     139.128 133.060 144.396  0.00  0.00    -0.216 N 
ATOM      9  C           0     139.408 132.217 145.444  0.00  0.00     0.670 C 
ATOM     10  N           0     140.610 131.844 145.783  0.00  0.00    -0.235 N 
ATOM     11  H           0     141.377 132.165 145.283  0.00  0.00     0.174 HD
ATOM     12  H           0     140.738 131.246 146.535  0.00  0.00     0.174 HD
ATOM     13  C           0     137.149 132.651 145.617  0.00  0.00     0.217 C 
ATOM     14  N           0     138.264 131.816 146.091  0.00  0.00    -0.191 N 
ATOM     15  N           0     136.066 131.830 145.074  0.00  0.00    -0.179 N 
ATOM     16  C           0     135.297 131.337 146.226  0.00  0.00     0.106 C 
ATOM     17  C           0     135.793 129.947 146.630  0.00  0.00     0.033 C 
ATOM     18  C           0     135.531 132.336 147.379  0.00  0.00     0.098 C 
ATOM     19  C           0     136.509 133.398 146.804  0.00  0.00     0.210 C 
ATOM     20  H           0     136.743 132.027 141.964  0.00  0.00     0.178 HD
ATOM     21  H           0     139.715 133.261 143.650  0.00  0.00     0.178 HD
ATOM     22  H           0     138.204 131.107 146.749  0.00  0.00     0.180 HD
ENDROOT
BRANCH   6  23
ATOM     23  C           0     135.857 134.627 143.416  0.00  0.00     0.208 C 
BRANCH  23  24
ATOM     24  O           0     134.707 134.073 142.724  0.00  0.00    -0.302 OA
BRANCH  24  25
ATOM     25  C           0     133.985 134.846 141.892  0.00  0.00     0.358 C 
ATOM     26  N           0     134.056 136.189 141.988  0.00  0.00    -0.346 N 
ATOM     27  H           0     134.626 136.598 142.657  0.00  0.00     0.161 HD
ATOM     28  H           0     133.534 136.746 141.388  0.00  0.00     0.161 HD
ATOM     29  O           0     133.269 134.334 141.054  0.00  0.00    -0.239 OA
ENDBRANCH  24  25
ENDBRANCH  23  24
ENDBRANCH   6  23
BRANCH  19  30
ATOM     30  O           0     137.492 133.762 147.775  0.00  0.00    -0.362 OA
ATOM     31  H           0     138.321 133.350 147.500  0.00  0.00     0.213 HD
ENDBRANCH  19  30
BRANCH  19  32
ATOM     32  O           0     135.796 134.549 146.346  0.00  0.00    -0.362 OA
ATOM     33  H           0     135.148 134.238 145.700  0.00  0.00     0.213 HD
ENDBRANCH  19  32
TORSDOF 5
ENDMDL
