# created with PyMOL 2.3.4
@<TRIPOS>MOLECULE
ligand_out_0001
33 35 1                 
SMALL
USER_CHARGES
@<TRIPOS>ATOM
1	   N	131.593	132.183	134.983	N.3	1	UNK0	-0.235	
2	   N	131.226	134.367	135.774	N.3	1	UNK0	-0.218	
3	   N	131.135	137.033	134.223	N.3	1	UNK0	-0.216	
4	   N	130.514	137.652	132.025	N.3	1	UNK0	-0.235	
5	   N	131.999	135.866	132.475	N.3	1	UNK0	-0.191	
6	   N	132.596	134.013	133.916	N.3	1	UNK0	-0.179	
7	   N	133.558	136.052	139.470	N.pl3	1	UNK0	-0.346	
8	   C	131.797	133.467	134.892	C.3	1	UNK0	0.672	
9	   C	131.932	135.617	136.044	C.3	1	UNK0	0.151	
10	   C	132.324	136.349	134.776	C.3	1	UNK0	0.180	
11	   C	131.175	136.896	132.856	C.3	1	UNK0	0.670	
12	   C	132.779	135.439	133.647	C.3	1	UNK0	0.217	
13	   C	133.476	133.294	132.984	C.3	1	UNK0	0.106	
14	   C	132.695	132.890	131.732	C.3	1	UNK0	0.033	
15	   C	134.613	134.268	132.605	C.3	1	UNK0	0.098	
16	   C	134.286	135.586	133.360	C.3	1	UNK0	0.210	
17	   C	133.198	135.306	136.845	C.2	1	UNK0	0.208	
18	   C	132.997	134.853	139.218	C.2	1	UNK0	0.358	
19	   O	132.869	134.422	137.949	O.2	1	UNK0	-0.302	
20	   O	132.606	134.160	140.137	O.co2	1	UNK0	-0.239	
21	   O	134.545	136.722	132.532	O.2	1	UNK0	-0.362	
22	   O	135.025	135.668	134.581	O.2	1	UNK0	-0.362	
23	   H	131.025	131.831	135.686	 H	1	UNK0	0.174	
24	   H	132.005	131.580	134.344	 H	1	UNK0	0.174	
25	   H	129.948	138.364	132.362	 H	1	UNK0	0.174	
26	   H	130.587	137.502	131.070	 H	1	UNK0	0.174	
27	   H	130.378	134.173	136.203	 H	1	UNK0	0.178	
28	   H	130.450	137.494	134.733	 H	1	UNK0	0.178	
29	   H	132.058	135.487	131.584	 H	1	UNK0	0.180	
30	   H	133.871	136.604	138.736	 H	1	UNK0	0.161	
31	   H	133.650	136.361	140.385	 H	1	UNK0	0.161	
32	   H	133.691	137.133	132.347	 H	1	UNK0	0.213	
33	   H	134.437	136.066	135.237	 H	1	UNK0	0.213	
@<TRIPOS>BOND
1 1 8 1
2 1 23 1
3 1 24 1
4 2 9 1
5 2 27 1
6 3 11 1
7 3 28 1
8 4 25 1
9 4 26 1
10 5 29 1
11 6 13 1
12 7 30 1
13 7 31 1
14 2 8 1
15 6 8 1
16 9 10 1
17 9 17 1
18 3 10 1
19 10 12 1
20 4 11 1
21 5 11 1
22 5 12 1
23 6 12 1
24 12 16 1
25 13 14 1
26 13 15 1
27 15 16 1
28 16 21 2
29 16 22 2
30 17 19 2
31 7 18 1
32 18 20 2
33 18 19 2
34 21 32 1
35 22 33 1
@<TRIPOS>SUBSTRUCTURE
1	UNK0	1	GROUP	1 ****	UNK
