# created with PyMOL 2.3.4
@<TRIPOS>MOLECULE
ligand_out_0001
30 32 1                 
SMALL
USER_CHARGES
@<TRIPOS>ATOM
1	   N	135.492	132.705	147.076	N.3	1	UNK0	-0.235	
2	   N	136.760	134.452	146.140	N.3	1	UNK0	-0.218	
3	   N	136.187	136.140	143.627	N.3	1	UNK0	-0.216	
4	   N	134.225	136.848	142.510	N.3	1	UNK0	-0.235	
5	   N	134.597	134.595	143.127	N.3	1	UNK0	-0.191	
6	   N	135.497	133.057	144.763	N.3	1	UNK0	-0.183	
7	   C	135.896	133.376	146.034	C.3	1	UNK0	0.672	
8	   C	137.638	134.748	145.012	C.3	1	UNK0	0.151	
9	   C	136.889	134.841	143.697	C.3	1	UNK0	0.180	
10	   C	134.958	135.918	143.055	C.3	1	UNK0	0.670	
11	   C	135.775	133.816	143.542	C.3	1	UNK0	0.217	
12	   C	134.758	131.863	144.318	C.3	1	UNK0	0.150	
13	   C	135.436	131.464	142.986	C.3	1	UNK0	0.093	
14	   C	136.109	132.762	142.472	C.3	1	UNK0	0.209	
15	   C	138.690	133.644	144.902	C.2	1	UNK0	0.206	
16	   C	140.552	132.813	146.206	C.2	1	UNK0	0.254	
17	   C	141.080	132.367	147.545	C.3	1	UNK0	0.126	
18	   O	139.448	133.571	146.138	O.2	1	UNK0	-0.320	
19	   O	141.125	132.488	145.193	O.co2	1	UNK0	-0.266	
20	   O	135.563	133.139	141.208	O.2	1	UNK0	-0.362	
21	   O	137.523	132.585	142.374	O.2	1	UNK0	-0.362	
22	   H	135.797	132.956	147.963	 H	1	UNK0	0.174	
23	   H	134.883	131.959	146.967	 H	1	UNK0	0.174	
24	   H	134.540	137.766	142.492	 H	1	UNK0	0.174	
25	   H	133.366	136.623	142.122	 H	1	UNK0	0.174	
26	   H	136.781	134.996	146.944	 H	1	UNK0	0.178	
27	   H	136.532	136.995	143.932	 H	1	UNK0	0.178	
28	   H	133.718	134.236	142.934	 H	1	UNK0	0.180	
29	   H	134.797	133.699	141.389	 H	1	UNK0	0.213	
30	   H	137.688	131.633	142.411	 H	1	UNK0	0.213	
@<TRIPOS>BOND
1 1 7 1
2 1 22 1
3 1 23 1
4 2 8 1
5 2 26 1
6 3 10 1
7 3 27 1
8 4 24 1
9 4 25 1
10 5 28 1
11 6 12 1
12 2 7 1
13 6 7 1
14 8 9 1
15 8 15 1
16 3 9 1
17 9 11 1
18 4 10 1
19 5 10 1
20 5 11 1
21 6 11 1
22 11 14 1
23 12 13 1
24 13 14 1
25 14 20 2
26 14 21 2
27 15 18 2
28 16 17 1
29 16 19 2
30 16 18 2
31 20 29 1
32 21 30 1
@<TRIPOS>SUBSTRUCTURE
1	UNK0	1	GROUP	1 ****	UNK
