MODEL 1
REMARK VINA RESULT:      -7.6      0.000      0.000
REMARK  5 active torsions:
REMARK  status: ('A' for Active; 'I' for Inactive)
REMARK    1  A    between atoms: C_6  and  C_7 
REMARK    2  A    between atoms: C_7  and  O_8 
REMARK    3  A    between atoms: O_8  and  C_9 
REMARK       I    between atoms: C_9  and  N_10 
REMARK    4  A    between atoms: C_24  and  O_25 
REMARK    5  A    between atoms: C_24  and  O_26 
ROOT
ATOM      1  N           0     134.892 136.776 143.129  0.00  0.00    -0.235 N 
ATOM      2  H           0     134.098 137.266 142.865  0.00  0.00     0.174 HD
ATOM      3  H           0     135.711 137.254 143.333  0.00  0.00     0.174 HD
ATOM      4  C           0     134.857 135.476 143.215  0.00  0.00     0.672 C 
ATOM      5  N           0     133.711 134.750 142.940  0.00  0.00    -0.218 N 
ATOM      6  C           0     133.860 133.383 142.448  0.00  0.00     0.151 C 
ATOM      7  C           0     134.781 132.547 143.314  0.00  0.00     0.180 C 
ATOM      8  N           0     134.059 132.140 144.539  0.00  0.00    -0.215 N 
ATOM      9  C           0     134.943 132.223 145.588  0.00  0.00     0.672 C 
ATOM     10  N           0     134.784 131.614 146.729  0.00  0.00    -0.235 N 
ATOM     11  H           0     134.002 131.060 146.878  0.00  0.00     0.174 HD
ATOM     12  H           0     135.447 131.716 147.430  0.00  0.00     0.174 HD
ATOM     13  C           0     135.994 133.299 143.838  0.00  0.00     0.219 C 
ATOM     14  N           0     136.014 133.026 145.286  0.00  0.00    -0.187 N 
ATOM     15  C           0     137.011 133.522 146.238  0.00  0.00     0.171 C 
ATOM     16  N           0     135.954 134.740 143.578  0.00  0.00    -0.183 N 
ATOM     17  C           0     137.345 135.202 143.733  0.00  0.00     0.150 C 
ATOM     18  C           0     138.197 134.065 143.121  0.00  0.00     0.093 C 
ATOM     19  C           0     137.300 132.804 143.194  0.00  0.00     0.210 C 
ATOM     20  H           0     132.832 135.140 143.071  0.00  0.00     0.178 HD
ATOM     21  H           0     133.131 131.865 144.592  0.00  0.00     0.178 HD
ENDROOT
BRANCH   6  22
ATOM     22  C           0     134.426 133.428 141.028  0.00  0.00     0.208 C 
BRANCH  22  23
ATOM     23  O           0     133.357 133.717 140.089  0.00  0.00    -0.302 OA
BRANCH  23  24
ATOM     24  C           0     133.427 134.808 139.304  0.00  0.00     0.358 C 
ATOM     25  N           0     133.554 136.031 139.859  0.00  0.00    -0.346 N 
ATOM     26  H           0     133.595 136.123 140.823  0.00  0.00     0.161 HD
ATOM     27  H           0     133.604 136.817 139.293  0.00  0.00     0.161 HD
ATOM     28  O           0     133.376 134.692 138.095  0.00  0.00    -0.239 OA
ENDBRANCH  23  24
ENDBRANCH  22  23
ENDBRANCH   6  22
BRANCH  19  29
ATOM     29  O           0     137.914 131.802 144.008  0.00  0.00    -0.362 OA
ATOM     30  H           0     138.193 131.092 143.414  0.00  0.00     0.213 HD
ENDBRANCH  19  29
BRANCH  19  31
ATOM     31  O           0     137.046 132.296 141.884  0.00  0.00    -0.362 OA
ATOM     32  H           0     136.135 131.971 141.882  0.00  0.00     0.213 HD
ENDBRANCH  19  31
TORSDOF 5
ENDMDL
MODEL 2
REMARK VINA RESULT:      -7.4      2.381      3.381
REMARK  5 active torsions:
REMARK  status: ('A' for Active; 'I' for Inactive)
REMARK    1  A    between atoms: C_6  and  C_7 
REMARK    2  A    between atoms: C_7  and  O_8 
REMARK    3  A    between atoms: O_8  and  C_9 
REMARK       I    between atoms: C_9  and  N_10 
REMARK    4  A    between atoms: C_24  and  O_25 
REMARK    5  A    between atoms: C_24  and  O_26 
ROOT
ATOM      1  N           0     138.982 133.292 142.975  0.00  0.00    -0.235 N 
ATOM      2  H           0     139.352 133.791 142.230  0.00  0.00     0.174 HD
ATOM      3  H           0     139.446 132.509 143.312  0.00  0.00     0.174 HD
ATOM      4  C           0     137.866 133.677 143.527  0.00  0.00     0.672 C 
ATOM      5  N           0     137.171 134.789 143.085  0.00  0.00    -0.218 N 
ATOM      6  C           0     135.723 134.819 143.269  0.00  0.00     0.151 C 
ATOM      7  C           0     135.307 134.507 144.693  0.00  0.00     0.180 C 
ATOM      8  N           0     135.544 135.695 145.540  0.00  0.00    -0.215 N 
ATOM      9  C           0     136.032 135.255 146.746  0.00  0.00     0.672 C 
ATOM     10  N           0     136.014 135.957 147.844  0.00  0.00    -0.235 N 
ATOM     11  H           0     135.639 136.852 147.841  0.00  0.00     0.174 HD
ATOM     12  H           0     136.376 135.586 148.664  0.00  0.00     0.174 HD
ATOM     13  C           0     136.133 133.416 145.357  0.00  0.00     0.219 C 
ATOM     14  N           0     136.540 133.983 146.654  0.00  0.00    -0.187 N 
ATOM     15  C           0     137.345 133.304 147.672  0.00  0.00     0.171 C 
ATOM     16  N           0     137.301 133.002 144.577  0.00  0.00    -0.183 N 
ATOM     17  C           0     137.691 131.690 145.125  0.00  0.00     0.150 C 
ATOM     18  C           0     136.347 130.985 145.426  0.00  0.00     0.093 C 
ATOM     19  C           0     135.316 132.132 145.581  0.00  0.00     0.210 C 
ATOM     20  H           0     137.635 135.531 142.666  0.00  0.00     0.178 HD
ATOM     21  H           0     135.384 136.618 145.289  0.00  0.00     0.178 HD
ENDROOT
BRANCH   6  22
ATOM     22  C           0     135.086 133.789 142.334  0.00  0.00     0.208 C 
BRANCH  22  23
ATOM     23  O           0     133.650 133.997 142.291  0.00  0.00    -0.302 OA
BRANCH  23  24
ATOM     24  C           0     132.868 133.154 141.590  0.00  0.00     0.358 C 
ATOM     25  N           0     132.868 131.837 141.878  0.00  0.00    -0.346 N 
ATOM     26  H           0     133.431 131.498 142.591  0.00  0.00     0.161 HD
ATOM     27  H           0     132.305 131.230 141.373  0.00  0.00     0.161 HD
ATOM     28  O           0     132.163 133.580 140.696  0.00  0.00    -0.239 OA
ENDBRANCH  23  24
ENDBRANCH  22  23
ENDBRANCH   6  22
BRANCH  19  29
ATOM     29  O           0     134.750 132.118 146.893  0.00  0.00    -0.362 OA
ATOM     30  H           0     133.985 132.710 146.874  0.00  0.00     0.213 HD
ENDBRANCH  19  29
BRANCH  19  31
ATOM     31  O           0     134.290 132.017 144.594  0.00  0.00    -0.362 OA
ATOM     32  H           0     134.659 132.357 143.766  0.00  0.00     0.213 HD
ENDBRANCH  19  31
TORSDOF 5
ENDMDL
MODEL 3
REMARK VINA RESULT:      -7.0      5.455     10.129
REMARK  5 active torsions:
REMARK  status: ('A' for Active; 'I' for Inactive)
REMARK    1  A    between atoms: C_6  and  C_7 
REMARK    2  A    between atoms: C_7  and  O_8 
REMARK    3  A    between atoms: O_8  and  C_9 
REMARK       I    between atoms: C_9  and  N_10 
REMARK    4  A    between atoms: C_24  and  O_25 
REMARK    5  A    between atoms: C_24  and  O_26 
ROOT
ATOM      1  N           0     131.426 132.158 134.957  0.00  0.00    -0.235 N 
ATOM      2  H           0     130.839 131.809 135.645  0.00  0.00     0.174 HD
ATOM      3  H           0     131.802 131.560 134.291  0.00  0.00     0.174 HD
ATOM      4  C           0     131.705 133.430 134.920  0.00  0.00     0.672 C 
ATOM      5  N           0     131.190 134.324 135.843  0.00  0.00    -0.218 N 
ATOM      6  C           0     131.965 135.522 136.155  0.00  0.00     0.151 C 
ATOM      7  C           0     132.392 136.281 134.915  0.00  0.00     0.180 C 
ATOM      8  N           0     131.238 137.038 134.386  0.00  0.00    -0.215 N 
ATOM      9  C           0     131.278 136.953 133.016  0.00  0.00     0.672 C 
ATOM     10  N           0     130.657 137.770 132.212  0.00  0.00    -0.235 N 
ATOM     11  H           0     130.125 138.495 132.576  0.00  0.00     0.174 HD
ATOM     12  H           0     130.728 137.654 131.252  0.00  0.00     0.174 HD
ATOM     13  C           0     132.807 135.391 133.753  0.00  0.00     0.219 C 
ATOM     14  N           0     132.053 135.901 132.596  0.00  0.00    -0.187 N 
ATOM     15  C           0     132.123 135.378 131.229  0.00  0.00     0.171 C 
ATOM     16  N           0     132.534 133.969 133.971  0.00  0.00    -0.183 N 
ATOM     17  C           0     133.380 133.256 132.997  0.00  0.00     0.150 C 
ATOM     18  C           0     134.700 134.062 132.974  0.00  0.00     0.093 C 
ATOM     19  C           0     134.317 135.478 133.473  0.00  0.00     0.210 C 
ATOM     20  H           0     130.334 134.159 136.271  0.00  0.00     0.178 HD
ATOM     21  H           0     130.573 137.509 134.912  0.00  0.00     0.178 HD
ENDROOT
BRANCH   6  22
ATOM     22  C           0     133.215 135.111 136.936  0.00  0.00     0.208 C 
BRANCH  22  23
ATOM     23  O           0     132.826 134.329 138.096  0.00  0.00    -0.302 OA
BRANCH  23  24
ATOM     24  C           0     133.014 134.823 139.334  0.00  0.00     0.358 C 
ATOM     25  N           0     133.498 136.071 139.496  0.00  0.00    -0.346 N 
ATOM     26  H           0     133.710 136.612 138.721  0.00  0.00     0.161 HD
ATOM     27  H           0     133.634 136.426 140.389  0.00  0.00     0.161 HD
ATOM     28  O           0     132.748 134.143 140.307  0.00  0.00    -0.239 OA
ENDBRANCH  23  24
ENDBRANCH  22  23
ENDBRANCH   6  22
BRANCH  19  29
ATOM     29  O           0     134.587 136.452 132.463  0.00  0.00    -0.362 OA
ATOM     30  H           0     134.207 136.114 131.640  0.00  0.00     0.213 HD
ENDBRANCH  19  29
BRANCH  19  31
ATOM     31  O           0     135.028 135.792 134.672  0.00  0.00    -0.362 OA
ATOM     32  H           0     134.367 136.058 135.327  0.00  0.00     0.213 HD
ENDBRANCH  19  31
TORSDOF 5
ENDMDL
MODEL 4
REMARK VINA RESULT:      -6.9      1.823      5.720
REMARK  5 active torsions:
REMARK  status: ('A' for Active; 'I' for Inactive)
REMARK    1  A    between atoms: C_6  and  C_7 
REMARK    2  A    between atoms: C_7  and  O_8 
REMARK    3  A    between atoms: O_8  and  C_9 
REMARK       I    between atoms: C_9  and  N_10 
REMARK    4  A    between atoms: C_24  and  O_25 
REMARK    5  A    between atoms: C_24  and  O_26 
ROOT
ATOM      1  N           0     134.689 131.823 146.697  0.00  0.00    -0.235 N 
ATOM      2  H           0     134.821 131.928 147.651  0.00  0.00     0.174 HD
ATOM      3  H           0     134.099 131.129 146.362  0.00  0.00     0.174 HD
ATOM      4  C           0     135.297 132.619 145.863  0.00  0.00     0.672 C 
ATOM      5  N           0     136.143 133.627 146.292  0.00  0.00    -0.218 N 
ATOM      6  C           0     137.228 134.044 145.407  0.00  0.00     0.151 C 
ATOM      7  C           0     136.748 134.362 144.004  0.00  0.00     0.180 C 
ATOM      8  N           0     136.095 135.688 144.002  0.00  0.00    -0.215 N 
ATOM      9  C           0     134.997 135.609 143.182  0.00  0.00     0.672 C 
ATOM     10  N           0     134.399 136.641 142.656  0.00  0.00    -0.235 N 
ATOM     11  H           0     134.728 137.536 142.837  0.00  0.00     0.174 HD
ATOM     12  H           0     133.626 136.515 142.084  0.00  0.00     0.174 HD
ATOM     13  C           0     135.668 133.423 143.489  0.00  0.00     0.219 C 
ATOM     14  N           0     134.605 134.308 142.983  0.00  0.00    -0.187 N 
ATOM     15  C           0     133.349 133.875 142.367  0.00  0.00     0.171 C 
ATOM     16  N           0     135.146 132.508 144.506  0.00  0.00    -0.183 N 
ATOM     17  C           0     134.485 131.426 143.754  0.00  0.00     0.150 C 
ATOM     18  C           0     135.402 131.195 142.529  0.00  0.00     0.093 C 
ATOM     19  C           0     136.183 132.522 142.354  0.00  0.00     0.210 C 
ATOM     20  H           0     136.018 134.047 147.158  0.00  0.00     0.178 HD
ATOM     21  H           0     136.389 136.472 144.492  0.00  0.00     0.178 HD
ENDROOT
BRANCH   6  22
ATOM     22  C           0     138.262 132.920 145.331  0.00  0.00     0.208 C 
BRANCH  22  23
ATOM     23  O           0     138.660 132.536 146.673  0.00  0.00    -0.302 OA
BRANCH  23  24
ATOM     24  C           0     138.494 131.266 147.087  0.00  0.00     0.358 C 
ATOM     25  N           0     139.354 130.308 146.686  0.00  0.00    -0.346 N 
ATOM     26  H           0     140.092 130.535 146.101  0.00  0.00     0.161 HD
ATOM     27  H           0     139.234 129.392 146.984  0.00  0.00     0.161 HD
ATOM     28  O           0     137.568 130.981 147.821  0.00  0.00    -0.239 OA
ENDBRANCH  23  24
ENDBRANCH  22  23
ENDBRANCH   6  22
BRANCH  19  29
ATOM     29  O           0     135.898 133.104 141.080  0.00  0.00    -0.362 OA
ATOM     30  H           0     134.966 132.925 140.894  0.00  0.00     0.213 HD
ENDBRANCH  19  29
BRANCH  19  31
ATOM     31  O           0     137.586 132.296 142.497  0.00  0.00    -0.362 OA
ATOM     32  H           0     137.761 131.405 142.165  0.00  0.00     0.213 HD
ENDBRANCH  19  31
TORSDOF 5
ENDMDL
MODEL 5
REMARK VINA RESULT:      -6.9      2.661      3.923
REMARK  5 active torsions:
REMARK  status: ('A' for Active; 'I' for Inactive)
REMARK    1  A    between atoms: C_6  and  C_7 
REMARK    2  A    between atoms: C_7  and  O_8 
REMARK    3  A    between atoms: O_8  and  C_9 
REMARK       I    between atoms: C_9  and  N_10 
REMARK    4  A    between atoms: C_24  and  O_25 
REMARK    5  A    between atoms: C_24  and  O_26 
ROOT
ATOM      1  N           0     136.323 134.511 147.560  0.00  0.00    -0.235 N 
ATOM      2  H           0     135.854 135.093 148.177  0.00  0.00     0.174 HD
ATOM      3  H           0     136.967 133.866 147.895  0.00  0.00     0.174 HD
ATOM      4  C           0     136.085 134.589 146.281  0.00  0.00     0.672 C 
ATOM      5  N           0     135.173 135.487 145.755  0.00  0.00    -0.218 N 
ATOM      6  C           0     135.384 135.971 144.393  0.00  0.00     0.151 C 
ATOM      7  C           0     135.602 134.845 143.401  0.00  0.00     0.180 C 
ATOM      8  N           0     134.302 134.215 143.088  0.00  0.00    -0.215 N 
ATOM      9  C           0     134.508 132.860 143.004  0.00  0.00     0.672 C 
ATOM     10  N           0     133.700 132.031 142.403  0.00  0.00    -0.235 N 
ATOM     11  H           0     132.893 132.364 141.979  0.00  0.00     0.174 HD
ATOM     12  H           0     133.905 131.084 142.381  0.00  0.00     0.174 HD
ATOM     13  C           0     136.444 133.698 143.936  0.00  0.00     0.219 C 
ATOM     14  N           0     135.669 132.484 143.631  0.00  0.00    -0.187 N 
ATOM     15  C           0     136.072 131.109 143.939  0.00  0.00     0.171 C 
ATOM     16  N           0     136.728 133.792 145.370  0.00  0.00    -0.183 N 
ATOM     17  C           0     137.877 132.898 145.599  0.00  0.00     0.150 C 
ATOM     18  C           0     138.773 133.098 144.354  0.00  0.00     0.093 C 
ATOM     19  C           0     137.820 133.627 143.252  0.00  0.00     0.210 C 
ATOM     20  H           0     134.412 135.787 146.278  0.00  0.00     0.178 HD
ATOM     21  H           0     133.457 134.675 142.964  0.00  0.00     0.178 HD
ENDROOT
BRANCH   6  22
ATOM     22  C           0     136.611 136.884 144.378  0.00  0.00     0.208 C 
BRANCH  22  23
ATOM     23  O           0     136.184 138.269 144.459  0.00  0.00    -0.302 OA
BRANCH  23  24
ATOM     24  C           0     135.036 138.655 143.871  0.00  0.00     0.358 C 
ATOM     25  N           0     134.996 138.860 142.539  0.00  0.00    -0.346 N 
ATOM     26  H           0     135.795 138.730 142.005  0.00  0.00     0.161 HD
ATOM     27  H           0     134.169 139.138 142.115  0.00  0.00     0.161 HD
ATOM     28  O           0     134.035 138.819 144.541  0.00  0.00    -0.239 OA
ENDBRANCH  23  24
ENDBRANCH  22  23
ENDBRANCH   6  22
BRANCH  19  29
ATOM     29  O           0     137.786 132.721 142.147  0.00  0.00    -0.362 OA
ATOM     30  H           0     137.038 132.127 142.296  0.00  0.00     0.213 HD
ENDBRANCH  19  29
BRANCH  19  31
ATOM     31  O           0     138.228 134.926 142.821  0.00  0.00    -0.362 OA
ATOM     32  H           0     137.629 135.185 142.108  0.00  0.00     0.213 HD
ENDBRANCH  19  31
TORSDOF 5
ENDMDL
MODEL 6
REMARK VINA RESULT:      -6.7      2.854      4.452
REMARK  5 active torsions:
REMARK  status: ('A' for Active; 'I' for Inactive)
REMARK    1  A    between atoms: C_6  and  C_7 
REMARK    2  A    between atoms: C_7  and  O_8 
REMARK    3  A    between atoms: O_8  and  C_9 
REMARK       I    between atoms: C_9  and  N_10 
REMARK    4  A    between atoms: C_24  and  O_25 
REMARK    5  A    between atoms: C_24  and  O_26 
ROOT
ATOM      1  N           0     135.113 130.465 143.260  0.00  0.00    -0.235 N 
ATOM      2  H           0     134.949 130.318 142.316  0.00  0.00     0.174 HD
ATOM      3  H           0     134.681 129.902 143.922  0.00  0.00     0.174 HD
ATOM      4  C           0     135.921 131.415 143.641  0.00  0.00     0.672 C 
ATOM      5  N           0     136.565 132.240 142.736  0.00  0.00    -0.218 N 
ATOM      6  C           0     136.916 133.593 143.161  0.00  0.00     0.151 C 
ATOM      7  C           0     137.668 133.616 144.477  0.00  0.00     0.180 C 
ATOM      8  N           0     139.071 133.212 144.242  0.00  0.00    -0.215 N 
ATOM      9  C           0     139.455 132.415 145.293  0.00  0.00     0.672 C 
ATOM     10  N           0     140.695 132.175 145.615  0.00  0.00    -0.235 N 
ATOM     11  H           0     141.415 132.571 145.099  0.00  0.00     0.174 HD
ATOM     12  H           0     140.897 131.601 146.370  0.00  0.00     0.174 HD
ATOM     13  C           0     137.165 132.608 145.498  0.00  0.00     0.219 C 
ATOM     14  N           0     138.372 131.902 145.961  0.00  0.00    -0.187 N 
ATOM     15  C           0     138.410 130.837 146.967  0.00  0.00     0.171 C 
ATOM     16  N           0     136.180 131.665 144.963  0.00  0.00    -0.183 N 
ATOM     17  C           0     135.501 131.100 146.143  0.00  0.00     0.150 C 
ATOM     18  C           0     135.365 132.294 147.116  0.00  0.00     0.093 C 
ATOM     19  C           0     136.471 133.292 146.688  0.00  0.00     0.210 C 
ATOM     20  H           0     136.779 131.928 141.843  0.00  0.00     0.178 HD
ATOM     21  H           0     139.620 133.466 143.484  0.00  0.00     0.178 HD
ENDROOT
BRANCH   6  22
ATOM     22  C           0     135.632 134.411 143.314  0.00  0.00     0.208 C 
BRANCH  22  23
ATOM     23  O           0     135.961 135.745 143.783  0.00  0.00    -0.302 OA
BRANCH  23  24
ATOM     24  C           0     135.077 136.748 143.632  0.00  0.00     0.358 C 
ATOM     25  N           0     134.386 136.870 142.480  0.00  0.00    -0.346 N 
ATOM     26  H           0     134.526 136.235 141.762  0.00  0.00     0.161 HD
ATOM     27  H           0     133.749 137.594 142.371  0.00  0.00     0.161 HD
ATOM     28  O           0     134.901 137.545 144.533  0.00  0.00    -0.239 OA
ENDBRANCH  23  24
ENDBRANCH  22  23
ENDBRANCH   6  22
BRANCH  19  29
ATOM     29  O           0     137.395 133.500 147.758  0.00  0.00    -0.362 OA
ATOM     30  H           0     137.730 134.402 147.666  0.00  0.00     0.213 HD
ENDBRANCH  19  29
BRANCH  19  31
ATOM     31  O           0     135.892 134.532 146.279  0.00  0.00    -0.362 OA
ATOM     32  H           0     135.224 134.761 146.941  0.00  0.00     0.213 HD
ENDBRANCH  19  31
TORSDOF 5
ENDMDL
MODEL 7
REMARK VINA RESULT:      -6.6      7.477     10.113
REMARK  5 active torsions:
REMARK  status: ('A' for Active; 'I' for Inactive)
REMARK    1  A    between atoms: C_6  and  C_7 
REMARK    2  A    between atoms: C_7  and  O_8 
REMARK    3  A    between atoms: O_8  and  C_9 
REMARK       I    between atoms: C_9  and  N_10 
REMARK    4  A    between atoms: C_24  and  O_25 
REMARK    5  A    between atoms: C_24  and  O_26 
ROOT
ATOM      1  N           0     132.927 137.997 132.059  0.00  0.00    -0.235 N 
ATOM      2  H           0     132.334 138.706 131.767  0.00  0.00     0.174 HD
ATOM      3  H           0     133.858 137.999 131.783  0.00  0.00     0.174 HD
ATOM      4  C           0     132.478 137.044 132.826  0.00  0.00     0.672 C 
ATOM      5  N           0     131.161 137.000 133.250  0.00  0.00    -0.218 N 
ATOM      6  C           0     130.570 135.696 133.538  0.00  0.00     0.151 C 
ATOM      7  C           0     131.421 134.863 134.475  0.00  0.00     0.180 C 
ATOM      8  N           0     131.254 135.361 135.857  0.00  0.00    -0.215 N 
ATOM      9  C           0     132.485 135.319 136.465  0.00  0.00     0.672 C 
ATOM     10  N           0     132.666 135.333 137.756  0.00  0.00    -0.235 N 
ATOM     11  H           0     131.901 135.375 138.351  0.00  0.00     0.174 HD
ATOM     12  H           0     133.564 135.302 138.120  0.00  0.00     0.174 HD
ATOM     13  C           0     132.917 134.978 134.224  0.00  0.00     0.219 C 
ATOM     14  N           0     133.503 135.261 135.545  0.00  0.00    -0.187 N 
ATOM     15  C           0     134.928 135.444 135.830  0.00  0.00     0.171 C 
ATOM     16  N           0     133.276 136.018 133.258  0.00  0.00    -0.183 N 
ATOM     17  C           0     134.643 135.686 132.818  0.00  0.00     0.150 C 
ATOM     18  C           0     134.651 134.142 132.724  0.00  0.00     0.093 C 
ATOM     19  C           0     133.507 133.675 133.659  0.00  0.00     0.210 C 
ATOM     20  H           0     130.644 137.815 133.354  0.00  0.00     0.178 HD
ATOM     21  H           0     130.426 135.663 136.260  0.00  0.00     0.178 HD
ENDROOT
BRANCH   6  22
ATOM     22  C           0     130.393 134.933 132.224  0.00  0.00     0.208 C 
BRANCH  22  23
ATOM     23  O           0     129.025 134.458 132.120  0.00  0.00    -0.302 OA
BRANCH  23  24
ATOM     24  C           0     128.777 133.140 132.002  0.00  0.00     0.358 C 
ATOM     25  N           0     129.456 132.256 132.761  0.00  0.00    -0.346 N 
ATOM     26  H           0     130.122 132.570 133.391  0.00  0.00     0.161 HD
ATOM     27  H           0     129.277 131.306 132.676  0.00  0.00     0.161 HD
ATOM     28  O           0     127.942 132.747 131.212  0.00  0.00    -0.239 OA
ENDBRANCH  23  24
ENDBRANCH  22  23
ENDBRANCH   6  22
BRANCH  19  29
ATOM     29  O           0     134.026 132.859 134.711  0.00  0.00    -0.362 OA
ATOM     30  H           0     133.515 133.068 135.505  0.00  0.00     0.213 HD
ENDBRANCH  19  29
BRANCH  19  31
ATOM     31  O           0     132.516 132.962 132.917  0.00  0.00    -0.362 OA
ATOM     32  H           0     132.663 133.169 131.983  0.00  0.00     0.213 HD
ENDBRANCH  19  31
TORSDOF 5
ENDMDL
MODEL 8
REMARK VINA RESULT:      -6.6      6.122     10.794
REMARK  5 active torsions:
REMARK  status: ('A' for Active; 'I' for Inactive)
REMARK    1  A    between atoms: C_6  and  C_7 
REMARK    2  A    between atoms: C_7  and  O_8 
REMARK    3  A    between atoms: O_8  and  C_9 
REMARK       I    between atoms: C_9  and  N_10 
REMARK    4  A    between atoms: C_24  and  O_25 
REMARK    5  A    between atoms: C_24  and  O_26 
ROOT
ATOM      1  N           0     134.793 134.262 132.947  0.00  0.00    -0.235 N 
ATOM      2  H           0     135.392 133.596 133.319  0.00  0.00     0.174 HD
ATOM      3  H           0     135.073 134.794 132.185  0.00  0.00     0.174 HD
ATOM      4  C           0     133.611 134.439 133.466  0.00  0.00     0.672 C 
ATOM      5  N           0     133.165 133.702 134.550  0.00  0.00    -0.218 N 
ATOM      6  C           0     132.187 134.312 135.447  0.00  0.00     0.151 C 
ATOM      7  C           0     130.992 134.882 134.708  0.00  0.00     0.180 C 
ATOM      8  N           0     130.094 133.777 134.310  0.00  0.00    -0.215 N 
ATOM      9  C           0     129.623 134.059 133.051  0.00  0.00     0.672 C 
ATOM     10  N           0     128.557 133.520 132.530  0.00  0.00    -0.235 N 
ATOM     11  H           0     128.041 132.876 133.040  0.00  0.00     0.174 HD
ATOM     12  H           0     128.279 133.763 131.634  0.00  0.00     0.174 HD
ATOM     13  C           0     131.340 135.561 133.393  0.00  0.00     0.219 C 
ATOM     14  N           0     130.415 134.977 132.408  0.00  0.00    -0.187 N 
ATOM     15  C           0     130.347 135.322 130.985  0.00  0.00     0.171 C 
ATOM     16  N           0     132.732 135.371 132.980  0.00  0.00    -0.183 N 
ATOM     17  C           0     132.991 136.427 131.984  0.00  0.00     0.150 C 
ATOM     18  C           0     132.234 137.661 132.529  0.00  0.00     0.093 C 
ATOM     19  C           0     131.139 137.084 133.461  0.00  0.00     0.210 C 
ATOM     20  H           0     133.492 132.802 134.708  0.00  0.00     0.178 HD
ATOM     21  H           0     129.877 132.996 134.842  0.00  0.00     0.178 HD
ENDROOT
BRANCH   6  22
ATOM     22  C           0     132.868 135.439 136.226  0.00  0.00     0.208 C 
BRANCH  22  23
ATOM     23  O           0     133.664 134.872 137.300  0.00  0.00    -0.302 OA
BRANCH  23  24
ATOM     24  C           0     133.216 134.923 138.568  0.00  0.00     0.358 C 
ATOM     25  N           0     133.522 135.979 139.350  0.00  0.00    -0.346 N 
ATOM     26  H           0     134.064 136.701 138.997  0.00  0.00     0.161 HD
ATOM     27  H           0     133.199 136.015 140.264  0.00  0.00     0.161 HD
ATOM     28  O           0     132.536 134.017 139.010  0.00  0.00    -0.239 OA
ENDBRANCH  23  24
ENDBRANCH  22  23
ENDBRANCH   6  22
BRANCH  19  29
ATOM     29  O           0     129.840 137.442 132.984  0.00  0.00    -0.362 OA
ATOM     30  H           0     129.918 138.326 132.599  0.00  0.00     0.213 HD
ENDBRANCH  19  29
BRANCH  19  31
ATOM     31  O           0     131.326 137.551 134.798  0.00  0.00    -0.362 OA
ATOM     32  H           0     132.127 137.124 135.134  0.00  0.00     0.213 HD
ENDBRANCH  19  31
TORSDOF 5
ENDMDL
MODEL 9
REMARK VINA RESULT:      -6.6      8.466     11.020
REMARK  5 active torsions:
REMARK  status: ('A' for Active; 'I' for Inactive)
REMARK    1  A    between atoms: C_6  and  C_7 
REMARK    2  A    between atoms: C_7  and  O_8 
REMARK    3  A    between atoms: O_8  and  C_9 
REMARK       I    between atoms: C_9  and  N_10 
REMARK    4  A    between atoms: C_24  and  O_25 
REMARK    5  A    between atoms: C_24  and  O_26 
ROOT
ATOM      1  N           0     128.922 133.344 131.343  0.00  0.00    -0.235 N 
ATOM      2  H           0     128.062 133.050 131.003  0.00  0.00     0.174 HD
ATOM      3  H           0     129.330 134.153 130.995  0.00  0.00     0.174 HD
ATOM      4  C           0     129.526 132.657 132.271  0.00  0.00     0.672 C 
ATOM      5  N           0     128.983 131.501 132.802  0.00  0.00    -0.218 N 
ATOM      6  C           0     129.893 130.482 133.319  0.00  0.00     0.151 C 
ATOM      7  C           0     130.910 131.046 134.292  0.00  0.00     0.180 C 
ATOM      8  N           0     130.257 131.276 135.599  0.00  0.00    -0.215 N 
ATOM      9  C           0     130.744 132.456 136.104  0.00  0.00     0.672 C 
ATOM     10  N           0     130.683 132.796 137.361  0.00  0.00    -0.235 N 
ATOM     11  H           0     130.272 132.198 138.005  0.00  0.00     0.174 HD
ATOM     12  H           0     131.046 133.647 137.652  0.00  0.00     0.174 HD
ATOM     13  C           0     131.446 132.416 133.907  0.00  0.00     0.219 C 
ATOM     14  N           0     131.304 133.235 135.122  0.00  0.00    -0.187 N 
ATOM     15  C           0     131.699 134.639 135.261  0.00  0.00     0.171 C 
ATOM     16  N           0     130.744 133.029 132.778  0.00  0.00    -0.183 N 
ATOM     17  C           0     131.650 134.079 132.279  0.00  0.00     0.150 C 
ATOM     18  C           0     133.062 133.458 132.403  0.00  0.00     0.093 C 
ATOM     19  C           0     132.924 132.357 133.485  0.00  0.00     0.210 C 
ATOM     20  H           0     128.022 131.371 132.832  0.00  0.00     0.178 HD
ATOM     21  H           0     129.604 130.698 136.022  0.00  0.00     0.178 HD
ENDROOT
BRANCH   6  22
ATOM     22  C           0     130.637 129.844 132.145  0.00  0.00     0.208 C 
BRANCH  22  23
ATOM     23  O           0     130.458 128.404 132.183  0.00  0.00    -0.302 OA
BRANCH  23  24
ATOM     24  C           0     131.303 127.639 132.900  0.00  0.00     0.358 C 
ATOM     25  N           0     130.931 126.402 133.286  0.00  0.00    -0.346 N 
ATOM     26  H           0     130.054 126.064 133.047  0.00  0.00     0.161 HD
ATOM     27  H           0     131.539 125.851 133.803  0.00  0.00     0.161 HD
ATOM     28  O           0     132.402 128.064 133.200  0.00  0.00    -0.239 OA
ENDBRANCH  23  24
ENDBRANCH  22  23
ENDBRANCH   6  22
BRANCH  19  29
ATOM     29  O           0     133.776 132.642 134.596  0.00  0.00    -0.362 OA
ATOM     30  H           0     134.678 132.693 134.250  0.00  0.00     0.213 HD
ENDBRANCH  19  29
BRANCH  19  31
ATOM     31  O           0     133.233 131.076 132.934  0.00  0.00    -0.362 OA
ATOM     32  H           0     132.624 130.443 133.340  0.00  0.00     0.213 HD
ENDBRANCH  19  31
TORSDOF 5
ENDMDL
