# created with PyMOL 2.3.4
@<TRIPOS>MOLECULE
ligand_out_0001
32 34 1                 
SMALL
USER_CHARGES
@<TRIPOS>ATOM
1	   N	134.892	136.776	143.129	N.3	1	UNK0	-0.235	
2	   N	133.711	134.750	142.940	N.3	1	UNK0	-0.218	
3	   N	134.059	132.140	144.539	N.3	1	UNK0	-0.215	
4	   N	134.784	131.614	146.729	N.3	1	UNK0	-0.235	
5	   N	136.014	133.026	145.286	N.3	1	UNK0	-0.187	
6	   N	135.954	134.740	143.578	N.3	1	UNK0	-0.183	
7	   N	133.554	136.031	139.859	N.pl3	1	UNK0	-0.346	
8	   C	134.857	135.476	143.215	C.3	1	UNK0	0.672	
9	   C	133.860	133.383	142.448	C.3	1	UNK0	0.151	
10	   C	134.781	132.547	143.314	C.3	1	UNK0	0.180	
11	   C	134.943	132.223	145.588	C.3	1	UNK0	0.672	
12	   C	135.994	133.299	143.838	C.3	1	UNK0	0.219	
13	   C	137.011	133.522	146.238	C.3	1	UNK0	0.171	
14	   C	137.345	135.202	143.733	C.3	1	UNK0	0.150	
15	   C	138.197	134.065	143.121	C.3	1	UNK0	0.093	
16	   C	137.300	132.804	143.194	C.3	1	UNK0	0.210	
17	   C	134.426	133.428	141.028	C.2	1	UNK0	0.208	
18	   C	133.427	134.808	139.304	C.2	1	UNK0	0.358	
19	   O	133.357	133.717	140.089	O.2	1	UNK0	-0.302	
20	   O	133.376	134.692	138.095	O.co2	1	UNK0	-0.239	
21	   O	137.914	131.802	144.008	O.2	1	UNK0	-0.362	
22	   O	137.046	132.296	141.884	O.2	1	UNK0	-0.362	
23	   H	134.098	137.266	142.865	 H	1	UNK0	0.174	
24	   H	135.711	137.254	143.333	 H	1	UNK0	0.174	
25	   H	134.002	131.060	146.878	 H	1	UNK0	0.174	
26	   H	135.447	131.716	147.430	 H	1	UNK0	0.174	
27	   H	132.832	135.140	143.071	 H	1	UNK0	0.178	
28	   H	133.131	131.865	144.592	 H	1	UNK0	0.178	
29	   H	133.595	136.123	140.823	 H	1	UNK0	0.161	
30	   H	133.604	136.817	139.293	 H	1	UNK0	0.161	
31	   H	138.193	131.092	143.414	 H	1	UNK0	0.213	
32	   H	136.135	131.971	141.882	 H	1	UNK0	0.213	
@<TRIPOS>BOND
1 1 8 1
2 1 23 1
3 1 24 1
4 2 9 1
5 2 27 1
6 3 11 1
7 3 28 1
8 4 25 1
9 4 26 1
10 5 13 1
11 6 14 1
12 7 29 1
13 7 30 1
14 2 8 1
15 6 8 1
16 9 10 1
17 9 17 1
18 3 10 1
19 10 12 1
20 4 11 1
21 5 11 1
22 5 12 1
23 6 12 1
24 12 16 1
25 14 15 1
26 15 16 1
27 16 21 2
28 16 22 2
29 17 19 2
30 7 18 1
31 18 20 2
32 18 19 2
33 21 31 1
34 22 32 1
@<TRIPOS>SUBSTRUCTURE
1	UNK0	1	GROUP	1 ****	UNK
