# created with PyMOL 2.3.4
@<TRIPOS>MOLECULE
ligand_out_0001
30 32 1                 
SMALL
USER_CHARGES
@<TRIPOS>ATOM
1	   N	134.897	136.703	143.089	N.3	1	UNK0	-0.235	
2	   N	133.765	134.643	142.971	N.3	1	UNK0	-0.218	
3	   N	134.177	132.099	144.660	N.3	1	UNK0	-0.216	
4	   N	134.914	131.667	146.866	N.3	1	UNK0	-0.235	
5	   N	136.110	133.058	145.373	N.3	1	UNK0	-0.191	
6	   N	136.008	134.709	143.608	N.3	1	UNK0	-0.183	
7	   C	134.893	135.406	143.220	C.3	1	UNK0	0.672	
8	   C	133.947	133.265	142.527	C.3	1	UNK0	0.151	
9	   C	134.888	132.481	143.421	C.3	1	UNK0	0.180	
10	   C	135.058	132.240	145.704	C.3	1	UNK0	0.670	
11	   C	136.083	133.280	143.918	C.3	1	UNK0	0.217	
12	   C	137.387	135.210	143.745	C.3	1	UNK0	0.150	
13	   C	138.267	134.074	143.172	C.3	1	UNK0	0.093	
14	   C	137.400	132.795	143.290	C.3	1	UNK0	0.209	
15	   C	134.512	133.274	141.106	C.2	1	UNK0	0.206	
16	   C	133.427	134.846	139.618	C.2	1	UNK0	0.254	
17	   C	133.669	135.015	138.141	C.3	1	UNK0	0.126	
18	   O	133.459	133.622	140.168	O.2	1	UNK0	-0.320	
19	   O	133.206	135.813	140.308	O.co2	1	UNK0	-0.266	
20	   O	138.038	131.837	144.136	O.2	1	UNK0	-0.362	
21	   O	137.157	132.236	141.997	O.2	1	UNK0	-0.362	
22	   H	134.091	137.164	142.809	 H	1	UNK0	0.174	
23	   H	135.704	137.207	143.276	 H	1	UNK0	0.174	
24	   H	134.145	131.099	147.035	 H	1	UNK0	0.174	
25	   H	135.575	131.808	147.561	 H	1	UNK0	0.174	
26	   H	132.877	135.016	143.090	 H	1	UNK0	0.178	
27	   H	133.255	131.803	144.724	 H	1	UNK0	0.178	
28	   H	136.761	133.423	145.991	 H	1	UNK0	0.180	
29	   H	138.953	131.763	143.835	 H	1	UNK0	0.213	
30	   H	137.872	132.543	141.422	 H	1	UNK0	0.213	
@<TRIPOS>BOND
1 1 7 1
2 1 22 1
3 1 23 1
4 2 8 1
5 2 26 1
6 3 10 1
7 3 27 1
8 4 24 1
9 4 25 1
10 5 28 1
11 6 12 1
12 2 7 1
13 6 7 1
14 8 9 1
15 8 15 1
16 3 9 1
17 9 11 1
18 4 10 1
19 5 10 1
20 5 11 1
21 6 11 1
22 11 14 1
23 12 13 1
24 13 14 1
25 14 20 2
26 14 21 2
27 15 18 2
28 16 17 1
29 16 19 2
30 16 18 2
31 20 29 1
32 21 30 1
@<TRIPOS>SUBSTRUCTURE
1	UNK0	1	GROUP	1 ****	UNK
