# created with PyMOL 2.3.4
@<TRIPOS>MOLECULE
ligand_out_0001
33 35 1                 
SMALL
USER_CHARGES
@<TRIPOS>ATOM
1	   N	137.475	135.347	143.239	N.3	1	UNK0	-0.235	
2	   N	135.126	135.424	143.173	N.3	1	UNK0	-0.218	
3	   N	133.062	134.158	145.086	N.3	1	UNK0	-0.216	
4	   N	133.048	133.621	147.390	N.3	1	UNK0	-0.235	
5	   N	134.808	132.984	145.944	N.3	1	UNK0	-0.191	
6	   N	136.210	133.551	144.051	N.3	1	UNK0	-0.179	
7	   N	133.537	136.195	139.666	N.pl3	1	UNK0	-0.346	
8	   C	136.320	134.795	143.480	C.3	1	UNK0	0.672	
9	   C	133.965	134.594	142.861	C.3	1	UNK0	0.151	
10	   C	133.709	133.532	143.913	C.3	1	UNK0	0.180	
11	   C	133.606	133.590	146.213	C.3	1	UNK0	0.670	
12	   C	134.970	132.905	144.484	C.3	1	UNK0	0.217	
13	   C	137.291	132.584	144.291	C.3	1	UNK0	0.106	
14	   C	137.937	132.849	145.653	C.3	1	UNK0	0.033	
15	   C	136.646	131.182	144.278	C.3	1	UNK0	0.098	
16	   C	135.130	131.434	144.049	C.3	1	UNK0	0.210	
17	   C	134.197	133.906	141.514	C.2	1	UNK0	0.208	
18	   C	133.182	134.900	139.549	C.2	1	UNK0	0.358	
19	   O	133.053	134.135	140.650	O.2	1	UNK0	-0.302	
20	   O	132.980	134.422	138.450	O.co2	1	UNK0	-0.239	
21	   O	134.343	130.566	144.868	O.2	1	UNK0	-0.362	
22	   O	134.791	131.278	142.670	O.2	1	UNK0	-0.362	
23	   H	137.517	136.227	142.832	 H	1	UNK0	0.174	
24	   H	138.293	134.881	143.471	 H	1	UNK0	0.174	
25	   H	132.195	134.067	147.512	 H	1	UNK0	0.174	
26	   H	133.486	133.199	148.145	 H	1	UNK0	0.174	
27	   H	135.061	136.391	143.166	 H	1	UNK0	0.178	
28	   H	132.377	134.846	145.065	 H	1	UNK0	0.178	
29	   H	135.441	132.661	146.605	 H	1	UNK0	0.180	
30	   H	133.698	136.576	140.544	 H	1	UNK0	0.161	
31	   H	133.630	136.746	138.873	 H	1	UNK0	0.161	
32	   H	134.952	129.931	145.267	 H	1	UNK0	0.213	
33	   H	135.352	131.890	142.174	 H	1	UNK0	0.213	
@<TRIPOS>BOND
1 1 8 1
2 1 23 1
3 1 24 1
4 2 9 1
5 2 27 1
6 3 11 1
7 3 28 1
8 4 25 1
9 4 26 1
10 5 29 1
11 6 13 1
12 7 30 1
13 7 31 1
14 2 8 1
15 6 8 1
16 9 10 1
17 9 17 1
18 3 10 1
19 10 12 1
20 4 11 1
21 5 11 1
22 5 12 1
23 6 12 1
24 12 16 1
25 13 14 1
26 13 15 1
27 15 16 1
28 16 21 2
29 16 22 2
30 17 19 2
31 7 18 1
32 18 20 2
33 18 19 2
34 21 32 1
35 22 33 1
@<TRIPOS>SUBSTRUCTURE
1	UNK0	1	GROUP	1 ****	UNK
