MODEL 1
REMARK VINA RESULT:      -7.9      0.000      0.000
REMARK  5 active torsions:
REMARK  status: ('A' for Active; 'I' for Inactive)
REMARK    1  A    between atoms: C_6  and  C_7 
REMARK    2  A    between atoms: C_7  and  O_8 
REMARK    3  A    between atoms: O_8  and  C_9 
REMARK       I    between atoms: C_9  and  N_10 
REMARK    4  A    between atoms: C_24  and  O_25 
REMARK    5  A    between atoms: C_24  and  O_26 
ROOT
ATOM      1  N           0     137.475 135.347 143.239  0.00  0.00    -0.235 N 
ATOM      2  H           0     137.517 136.227 142.832  0.00  0.00     0.174 HD
ATOM      3  H           0     138.293 134.881 143.471  0.00  0.00     0.174 HD
ATOM      4  C           0     136.320 134.795 143.480  0.00  0.00     0.672 C 
ATOM      5  N           0     135.126 135.424 143.173  0.00  0.00    -0.218 N 
ATOM      6  C           0     133.965 134.594 142.861  0.00  0.00     0.151 C 
ATOM      7  C           0     133.709 133.532 143.913  0.00  0.00     0.180 C 
ATOM      8  N           0     133.062 134.158 145.086  0.00  0.00    -0.216 N 
ATOM      9  C           0     133.606 133.590 146.213  0.00  0.00     0.670 C 
ATOM     10  N           0     133.048 133.621 147.390  0.00  0.00    -0.235 N 
ATOM     11  H           0     132.195 134.067 147.512  0.00  0.00     0.174 HD
ATOM     12  H           0     133.486 133.199 148.145  0.00  0.00     0.174 HD
ATOM     13  C           0     134.970 132.905 144.484  0.00  0.00     0.217 C 
ATOM     14  N           0     134.808 132.984 145.944  0.00  0.00    -0.191 N 
ATOM     15  N           0     136.210 133.551 144.051  0.00  0.00    -0.179 N 
ATOM     16  C           0     137.291 132.584 144.291  0.00  0.00     0.106 C 
ATOM     17  C           0     137.937 132.849 145.653  0.00  0.00     0.033 C 
ATOM     18  C           0     136.646 131.182 144.278  0.00  0.00     0.098 C 
ATOM     19  C           0     135.130 131.434 144.049  0.00  0.00     0.210 C 
ATOM     20  H           0     135.061 136.391 143.166  0.00  0.00     0.178 HD
ATOM     21  H           0     132.377 134.846 145.065  0.00  0.00     0.178 HD
ATOM     22  H           0     135.441 132.661 146.605  0.00  0.00     0.180 HD
ENDROOT
BRANCH   6  23
ATOM     23  C           0     134.197 133.906 141.514  0.00  0.00     0.208 C 
BRANCH  23  24
ATOM     24  O           0     133.053 134.135 140.650  0.00  0.00    -0.302 OA
BRANCH  24  25
ATOM     25  C           0     133.182 134.900 139.549  0.00  0.00     0.358 C 
ATOM     26  N           0     133.537 136.195 139.666  0.00  0.00    -0.346 N 
ATOM     27  H           0     133.698 136.576 140.544  0.00  0.00     0.161 HD
ATOM     28  H           0     133.630 136.746 138.873  0.00  0.00     0.161 HD
ATOM     29  O           0     132.980 134.422 138.450  0.00  0.00    -0.239 OA
ENDBRANCH  24  25
ENDBRANCH  23  24
ENDBRANCH   6  23
BRANCH  19  30
ATOM     30  O           0     134.343 130.566 144.868  0.00  0.00    -0.362 OA
ATOM     31  H           0     134.952 129.931 145.267  0.00  0.00     0.213 HD
ENDBRANCH  19  30
BRANCH  19  32
ATOM     32  O           0     134.791 131.278 142.670  0.00  0.00    -0.362 OA
ATOM     33  H           0     135.352 131.890 142.174  0.00  0.00     0.213 HD
ENDBRANCH  19  32
TORSDOF 5
ENDMDL
MODEL 2
REMARK VINA RESULT:      -7.5      2.228      3.884
REMARK  5 active torsions:
REMARK  status: ('A' for Active; 'I' for Inactive)
REMARK    1  A    between atoms: C_6  and  C_7 
REMARK    2  A    between atoms: C_7  and  O_8 
REMARK    3  A    between atoms: O_8  and  C_9 
REMARK       I    between atoms: C_9  and  N_10 
REMARK    4  A    between atoms: C_24  and  O_25 
REMARK    5  A    between atoms: C_24  and  O_26 
ROOT
ATOM      1  N           0     134.893 130.310 145.249  0.00  0.00    -0.235 N 
ATOM      2  H           0     134.960 129.390 144.947  0.00  0.00     0.174 HD
ATOM      3  H           0     134.707 130.501 146.181  0.00  0.00     0.174 HD
ATOM      4  C           0     135.060 131.287 144.403  0.00  0.00     0.672 C 
ATOM      5  N           0     135.334 131.064 143.065  0.00  0.00    -0.218 N 
ATOM      6  C           0     134.895 132.061 142.092  0.00  0.00     0.151 C 
ATOM      7  C           0     135.333 133.465 142.459  0.00  0.00     0.180 C 
ATOM      8  N           0     136.764 133.631 142.122  0.00  0.00    -0.216 N 
ATOM      9  C           0     137.346 134.360 143.131  0.00  0.00     0.670 C 
ATOM     10  N           0     138.477 134.998 143.013  0.00  0.00    -0.235 N 
ATOM     11  H           0     138.962 134.975 142.174  0.00  0.00     0.174 HD
ATOM     12  H           0     138.833 135.495 143.766  0.00  0.00     0.174 HD
ATOM     13  C           0     135.272 133.767 143.947  0.00  0.00     0.217 C 
ATOM     14  N           0     136.589 134.333 144.276  0.00  0.00    -0.191 N 
ATOM     15  N           0     134.970 132.604 144.783  0.00  0.00    -0.179 N 
ATOM     16  C           0     134.498 133.127 146.073  0.00  0.00     0.106 C 
ATOM     17  C           0     135.663 133.207 147.063  0.00  0.00     0.033 C 
ATOM     18  C           0     133.938 134.540 145.803  0.00  0.00     0.098 C 
ATOM     19  C           0     134.162 134.782 144.284  0.00  0.00     0.210 C 
ATOM     20  H           0     135.806 130.266 142.782  0.00  0.00     0.178 HD
ATOM     21  H           0     137.210 133.287 141.332  0.00  0.00     0.178 HD
ATOM     22  H           0     136.874 134.639 145.151  0.00  0.00     0.180 HD
ENDROOT
BRANCH   6  23
ATOM     23  C           0     133.368 132.028 142.006  0.00  0.00     0.208 C 
BRANCH  23  24
ATOM     24  O           0     132.910 133.079 141.115  0.00  0.00    -0.302 OA
BRANCH  24  25
ATOM     25  C           0     131.654 133.053 140.632  0.00  0.00     0.358 C 
ATOM     26  N           0     131.438 133.170 139.307  0.00  0.00    -0.346 N 
ATOM     27  H           0     132.189 133.274 138.701  0.00  0.00     0.161 HD
ATOM     28  H           0     130.533 133.151 138.959  0.00  0.00     0.161 HD
ATOM     29  O           0     130.714 132.923 141.391  0.00  0.00    -0.239 OA
ENDBRANCH  24  25
ENDBRANCH  23  24
ENDBRANCH   6  23
BRANCH  19  30
ATOM     30  O           0     134.597 136.122 144.043  0.00  0.00    -0.362 OA
ATOM     31  H           0     134.744 136.527 144.908  0.00  0.00     0.213 HD
ENDBRANCH  19  30
BRANCH  19  32
ATOM     32  O           0     132.974 134.493 143.544  0.00  0.00    -0.362 OA
ATOM     33  H           0     132.405 135.271 143.613  0.00  0.00     0.213 HD
ENDBRANCH  19  32
TORSDOF 5
ENDMDL
MODEL 3
REMARK VINA RESULT:      -7.2      1.936      2.697
REMARK  5 active torsions:
REMARK  status: ('A' for Active; 'I' for Inactive)
REMARK    1  A    between atoms: C_6  and  C_7 
REMARK    2  A    between atoms: C_7  and  O_8 
REMARK    3  A    between atoms: O_8  and  C_9 
REMARK       I    between atoms: C_9  and  N_10 
REMARK    4  A    between atoms: C_24  and  O_25 
REMARK    5  A    between atoms: C_24  and  O_26 
ROOT
ATOM      1  N           0     134.002 135.392 145.013  0.00  0.00    -0.235 N 
ATOM      2  H           0     133.156 135.794 144.758  0.00  0.00     0.174 HD
ATOM      3  H           0     134.620 135.882 145.579  0.00  0.00     0.174 HD
ATOM      4  C           0     134.305 134.194 144.602  0.00  0.00     0.672 C 
ATOM      5  N           0     133.454 133.454 143.800  0.00  0.00    -0.218 N 
ATOM      6  C           0     134.037 132.478 142.884  0.00  0.00     0.151 C 
ATOM      7  C           0     135.006 131.538 143.575  0.00  0.00     0.180 C 
ATOM      8  N           0     134.242 130.517 144.323  0.00  0.00    -0.216 N 
ATOM      9  C           0     134.889 130.307 145.517  0.00  0.00     0.670 C 
ATOM     10  N           0     134.724 129.249 146.262  0.00  0.00    -0.235 N 
ATOM     11  H           0     134.113 128.550 145.984  0.00  0.00     0.174 HD
ATOM     12  H           0     135.213 129.163 147.095  0.00  0.00     0.174 HD
ATOM     13  C           0     135.865 132.202 144.639  0.00  0.00     0.217 C 
ATOM     14  N           0     135.729 131.347 145.828  0.00  0.00    -0.191 N 
ATOM     15  N           0     135.491 133.585 144.934  0.00  0.00    -0.179 N 
ATOM     16  C           0     136.652 134.202 145.593  0.00  0.00     0.106 C 
ATOM     17  C           0     136.499 134.113 147.113  0.00  0.00     0.033 C 
ATOM     18  C           0     137.895 133.406 145.140  0.00  0.00     0.098 C 
ATOM     19  C           0     137.345 132.285 144.215  0.00  0.00     0.210 C 
ATOM     20  H           0     132.493 133.581 143.846  0.00  0.00     0.178 HD
ATOM     21  H           0     133.431 130.076 144.025  0.00  0.00     0.178 HD
ATOM     22  H           0     136.162 131.490 146.684  0.00  0.00     0.180 HD
ENDROOT
BRANCH   6  23
ATOM     23  C           0     134.781 133.224 141.775  0.00  0.00     0.208 C 
BRANCH  23  24
ATOM     24  O           0     133.820 133.835 140.874  0.00  0.00    -0.302 OA
BRANCH  24  25
ATOM     25  C           0     133.698 135.175 140.826  0.00  0.00     0.358 C 
ATOM     26  N           0     133.505 135.792 139.644  0.00  0.00    -0.346 N 
ATOM     27  H           0     133.455 135.271 138.827  0.00  0.00     0.161 HD
ATOM     28  H           0     133.417 136.758 139.610  0.00  0.00     0.161 HD
ATOM     29  O           0     133.762 135.827 141.849  0.00  0.00    -0.239 OA
ENDBRANCH  24  25
ENDBRANCH  23  24
ENDBRANCH   6  23
BRANCH  19  30
ATOM     30  O           0     138.022 131.050 144.457  0.00  0.00    -0.362 OA
ATOM     31  H           0     138.827 131.265 144.947  0.00  0.00     0.213 HD
ENDBRANCH  19  30
BRANCH  19  32
ATOM     32  O           0     137.454 132.664 142.841  0.00  0.00    -0.362 OA
ATOM     33  H           0     137.982 133.473 142.815  0.00  0.00     0.213 HD
ENDBRANCH  19  32
TORSDOF 5
ENDMDL
MODEL 4
REMARK VINA RESULT:      -7.0      5.613     10.462
REMARK  5 active torsions:
REMARK  status: ('A' for Active; 'I' for Inactive)
REMARK    1  A    between atoms: C_6  and  C_7 
REMARK    2  A    between atoms: C_7  and  O_8 
REMARK    3  A    between atoms: O_8  and  C_9 
REMARK       I    between atoms: C_9  and  N_10 
REMARK    4  A    between atoms: C_24  and  O_25 
REMARK    5  A    between atoms: C_24  and  O_26 
ROOT
ATOM      1  N           0     131.669 132.180 135.015  0.00  0.00    -0.235 N 
ATOM      2  H           0     131.114 131.827 135.728  0.00  0.00     0.174 HD
ATOM      3  H           0     132.082 131.577 134.377  0.00  0.00     0.174 HD
ATOM      4  C           0     131.854 133.466 134.909  0.00  0.00     0.672 C 
ATOM      5  N           0     131.282 134.366 135.790  0.00  0.00    -0.218 N 
ATOM      6  C           0     131.973 135.628 136.040  0.00  0.00     0.151 C 
ATOM      7  C           0     132.340 136.354 134.760  0.00  0.00     0.180 C 
ATOM      8  N           0     131.135 137.015 134.215  0.00  0.00    -0.216 N 
ATOM      9  C           0     131.161 136.866 132.849  0.00  0.00     0.670 C 
ATOM     10  N           0     130.480 137.605 132.019  0.00  0.00    -0.235 N 
ATOM     11  H           0     129.908 138.313 132.356  0.00  0.00     0.174 HD
ATOM     12  H           0     130.544 137.447 131.065  0.00  0.00     0.174 HD
ATOM     13  C           0     132.794 135.439 133.634  0.00  0.00     0.217 C 
ATOM     14  N           0     131.994 135.844 132.468  0.00  0.00    -0.191 N 
ATOM     15  N           0     132.633 134.013 133.919  0.00  0.00    -0.179 N 
ATOM     16  C           0     133.513 133.297 132.983  0.00  0.00     0.106 C 
ATOM     17  C           0     132.722 132.871 131.745  0.00  0.00     0.033 C 
ATOM     18  C           0     134.631 134.283 132.582  0.00  0.00     0.098 C 
ATOM     19  C           0     134.296 135.604 133.328  0.00  0.00     0.210 C 
ATOM     20  H           0     130.441 134.164 136.230  0.00  0.00     0.178 HD
ATOM     21  H           0     130.450 137.472 134.728  0.00  0.00     0.178 HD
ATOM     22  H           0     132.048 135.457 131.580  0.00  0.00     0.180 HD
ENDROOT
BRANCH   6  23
ATOM     23  C           0     133.253 135.342 136.828  0.00  0.00     0.208 C 
BRANCH  23  24
ATOM     24  O           0     132.957 134.431 137.919  0.00  0.00    -0.302 OA
BRANCH  24  25
ATOM     25  C           0     132.976 134.873 139.191  0.00  0.00     0.358 C 
ATOM     26  N           0     133.543 136.061 139.483  0.00  0.00    -0.346 N 
ATOM     27  H           0     133.938 136.596 138.776  0.00  0.00     0.161 HD
ATOM     28  H           0     133.557 136.379 140.399  0.00  0.00     0.161 HD
ATOM     29  O           0     132.482 134.202 140.075  0.00  0.00    -0.239 OA
ENDBRANCH  24  25
ENDBRANCH  23  24
ENDBRANCH   6  23
BRANCH  19  30
ATOM     30  O           0     134.529 136.735 132.486  0.00  0.00    -0.362 OA
ATOM     31  H           0     133.681 136.962 132.083  0.00  0.00     0.213 HD
ENDBRANCH  19  30
BRANCH  19  32
ATOM     32  O           0     135.048 135.708 134.539  0.00  0.00    -0.362 OA
ATOM     33  H           0     135.288 134.807 134.796  0.00  0.00     0.213 HD
ENDBRANCH  19  32
TORSDOF 5
ENDMDL
MODEL 5
REMARK VINA RESULT:      -7.0      2.201      3.131
REMARK  5 active torsions:
REMARK  status: ('A' for Active; 'I' for Inactive)
REMARK    1  A    between atoms: C_6  and  C_7 
REMARK    2  A    between atoms: C_7  and  O_8 
REMARK    3  A    between atoms: O_8  and  C_9 
REMARK       I    between atoms: C_9  and  N_10 
REMARK    4  A    between atoms: C_24  and  O_25 
REMARK    5  A    between atoms: C_24  and  O_26 
ROOT
ATOM      1  N           0     134.357 134.862 145.799  0.00  0.00    -0.235 N 
ATOM      2  H           0     133.518 135.251 145.506  0.00  0.00     0.174 HD
ATOM      3  H           0     134.942 135.361 146.390  0.00  0.00     0.174 HD
ATOM      4  C           0     134.695 133.667 145.404  0.00  0.00     0.672 C 
ATOM      5  N           0     133.890 132.915 144.566  0.00  0.00    -0.218 N 
ATOM      6  C           0     134.528 131.946 143.678  0.00  0.00     0.151 C 
ATOM      7  C           0     135.478 131.021 144.413  0.00  0.00     0.180 C 
ATOM      8  N           0     134.695 129.990 145.129  0.00  0.00    -0.216 N 
ATOM      9  C           0     135.291 129.790 146.351  0.00  0.00     0.670 C 
ATOM     10  N           0     135.109 128.731 147.089  0.00  0.00    -0.235 N 
ATOM     11  H           0     134.521 128.023 146.785  0.00  0.00     0.174 HD
ATOM     12  H           0     135.561 128.653 147.943  0.00  0.00     0.174 HD
ATOM     13  C           0     136.279 131.697 145.513  0.00  0.00     0.217 C 
ATOM     14  N           0     136.103 130.842 146.696  0.00  0.00    -0.191 N 
ATOM     15  N           0     135.873 133.076 145.789  0.00  0.00    -0.179 N 
ATOM     16  C           0     136.995 133.709 146.497  0.00  0.00     0.106 C 
ATOM     17  C           0     136.776 133.620 148.009  0.00  0.00     0.033 C 
ATOM     18  C           0     138.268 132.931 146.102  0.00  0.00     0.098 C 
ATOM     19  C           0     137.776 131.801 145.155  0.00  0.00     0.210 C 
ATOM     20  H           0     132.927 133.028 144.569  0.00  0.00     0.178 HD
ATOM     21  H           0     133.905 129.537 144.796  0.00  0.00     0.178 HD
ATOM     22  H           0     136.495 130.993 147.570  0.00  0.00     0.180 HD
ENDROOT
BRANCH   6  23
ATOM     23  C           0     135.309 132.702 142.602  0.00  0.00     0.208 C 
BRANCH  23  24
ATOM     24  O           0     134.465 132.895 141.436  0.00  0.00    -0.302 OA
BRANCH  24  25
ATOM     25  C           0     133.739 134.022 141.310  0.00  0.00     0.358 C 
ATOM     26  N           0     134.166 135.166 141.880  0.00  0.00    -0.346 N 
ATOM     27  H           0     134.996 135.177 142.383  0.00  0.00     0.161 HD
ATOM     28  H           0     133.642 135.978 141.789  0.00  0.00     0.161 HD
ATOM     29  O           0     132.700 134.007 140.681  0.00  0.00    -0.239 OA
ENDBRANCH  24  25
ENDBRANCH  23  24
ENDBRANCH   6  23
BRANCH  19  30
ATOM     30  O           0     138.458 130.576 145.429  0.00  0.00    -0.362 OA
ATOM     31  H           0     139.399 130.786 145.478  0.00  0.00     0.213 HD
ENDBRANCH  19  30
BRANCH  19  32
ATOM     32  O           0     137.940 132.179 143.786  0.00  0.00    -0.362 OA
ATOM     33  H           0     138.141 131.371 143.295  0.00  0.00     0.213 HD
ENDBRANCH  19  32
TORSDOF 5
ENDMDL
MODEL 6
REMARK VINA RESULT:      -6.6      2.511      3.674
REMARK  5 active torsions:
REMARK  status: ('A' for Active; 'I' for Inactive)
REMARK    1  A    between atoms: C_6  and  C_7 
REMARK    2  A    between atoms: C_7  and  O_8 
REMARK    3  A    between atoms: O_8  and  C_9 
REMARK       I    between atoms: C_9  and  N_10 
REMARK    4  A    between atoms: C_24  and  O_25 
REMARK    5  A    between atoms: C_24  and  O_26 
ROOT
ATOM      1  N           0     134.882 134.583 145.521  0.00  0.00    -0.235 N 
ATOM      2  H           0     134.127 134.941 145.028  0.00  0.00     0.174 HD
ATOM      3  H           0     135.500 135.184 145.965  0.00  0.00     0.174 HD
ATOM      4  C           0     135.063 133.294 145.592  0.00  0.00     0.672 C 
ATOM      5  N           0     134.204 132.397 144.981  0.00  0.00    -0.218 N 
ATOM      6  C           0     134.741 131.110 144.546  0.00  0.00     0.151 C 
ATOM      7  C           0     135.504 130.396 145.645  0.00  0.00     0.180 C 
ATOM      8  N           0     134.540 129.781 146.584  0.00  0.00    -0.216 N 
ATOM      9  C           0     135.031 129.954 147.855  0.00  0.00     0.670 C 
ATOM     10  N           0     134.655 129.250 148.887  0.00  0.00    -0.235 N 
ATOM     11  H           0     133.987 128.555 148.782  0.00  0.00     0.174 HD
ATOM     12  H           0     135.043 129.424 149.758  0.00  0.00     0.174 HD
ATOM     13  C           0     136.333 131.315 146.526  0.00  0.00     0.217 C 
ATOM     14  N           0     135.968 130.956 147.904  0.00  0.00    -0.191 N 
ATOM     15  N           0     136.118 132.741 146.274  0.00  0.00    -0.179 N 
ATOM     16  C           0     137.280 133.445 146.837  0.00  0.00     0.106 C 
ATOM     17  C           0     136.966 133.918 148.258  0.00  0.00     0.033 C 
ATOM     18  C           0     138.445 132.433 146.863  0.00  0.00     0.098 C 
ATOM     19  C           0     137.846 131.110 146.310  0.00  0.00     0.210 C 
ATOM     20  H           0     133.269 132.617 144.847  0.00  0.00     0.178 HD
ATOM     21  H           0     133.711 129.337 146.345  0.00  0.00     0.178 HD
ATOM     22  H           0     136.328 131.357 148.711  0.00  0.00     0.180 HD
ENDROOT
BRANCH   6  23
ATOM     23  C           0     135.684 131.343 143.364  0.00  0.00     0.208 C 
BRANCH  23  24
ATOM     24  O           0     134.920 131.804 142.219  0.00  0.00    -0.302 OA
BRANCH  24  25
ATOM     25  C           0     135.178 133.010 141.679  0.00  0.00     0.358 C 
ATOM     26  N           0     136.415 133.538 141.767  0.00  0.00    -0.346 N 
ATOM     27  H           0     137.119 133.049 142.221  0.00  0.00     0.161 HD
ATOM     28  H           0     136.600 134.407 141.378  0.00  0.00     0.161 HD
ATOM     29  O           0     134.295 133.622 141.110  0.00  0.00    -0.239 OA
ENDBRANCH  24  25
ENDBRANCH  23  24
ENDBRANCH   6  23
BRANCH  19  30
ATOM     30  O           0     138.325 129.987 147.053  0.00  0.00    -0.362 OA
ATOM     31  H           0     139.047 129.601 146.541  0.00  0.00     0.213 HD
ENDBRANCH  19  30
BRANCH  19  32
ATOM     32  O           0     138.140 130.962 144.919  0.00  0.00    -0.362 OA
ATOM     33  H           0     137.616 130.214 144.601  0.00  0.00     0.213 HD
ENDBRANCH  19  32
TORSDOF 5
ENDMDL
MODEL 7
REMARK VINA RESULT:      -6.6      7.401     10.808
REMARK  5 active torsions:
REMARK  status: ('A' for Active; 'I' for Inactive)
REMARK    1  A    between atoms: C_6  and  C_7 
REMARK    2  A    between atoms: C_7  and  O_8 
REMARK    3  A    between atoms: O_8  and  C_9 
REMARK       I    between atoms: C_9  and  N_10 
REMARK    4  A    between atoms: C_24  and  O_25 
REMARK    5  A    between atoms: C_24  and  O_26 
ROOT
ATOM      1  N           0     132.656 135.040 130.883  0.00  0.00    -0.235 N 
ATOM      2  H           0     133.411 135.247 130.310  0.00  0.00     0.174 HD
ATOM      3  H           0     131.782 135.413 130.687  0.00  0.00     0.174 HD
ATOM      4  C           0     132.813 134.253 131.910  0.00  0.00     0.672 C 
ATOM      5  N           0     134.037 133.691 132.226  0.00  0.00    -0.218 N 
ATOM      6  C           0     134.320 133.384 133.625  0.00  0.00     0.151 C 
ATOM      7  C           0     133.219 132.568 134.275  0.00  0.00     0.180 C 
ATOM      8  N           0     133.340 131.158 133.845  0.00  0.00    -0.216 N 
ATOM      9  C           0     132.071 130.679 133.630  0.00  0.00     0.670 C 
ATOM     10  N           0     131.763 129.413 133.595  0.00  0.00    -0.235 N 
ATOM     11  H           0     132.452 128.742 133.725  0.00  0.00     0.174 HD
ATOM     12  H           0     130.845 129.141 133.440  0.00  0.00     0.174 HD
ATOM     13  C           0     131.816 132.961 133.844  0.00  0.00     0.217 C 
ATOM     14  N           0     131.167 131.698 133.458  0.00  0.00    -0.191 N 
ATOM     15  N           0     131.775 133.934 132.751  0.00  0.00    -0.179 N 
ATOM     16  C           0     130.434 134.536 132.777  0.00  0.00     0.106 C 
ATOM     17  C           0     129.511 133.799 131.805  0.00  0.00     0.033 C 
ATOM     18  C           0     129.907 134.388 134.220  0.00  0.00     0.098 C 
ATOM     19  C           0     131.028 133.632 134.986  0.00  0.00     0.210 C 
ATOM     20  H           0     134.691 133.505 131.534  0.00  0.00     0.178 HD
ATOM     21  H           0     134.167 130.662 133.733  0.00  0.00     0.178 HD
ATOM     22  H           0     130.256 131.601 133.140  0.00  0.00     0.180 HD
ENDROOT
BRANCH   6  23
ATOM     23  C           0     134.482 134.695 134.396  0.00  0.00     0.208 C 
BRANCH  23  24
ATOM     24  O           0     134.763 134.406 135.791  0.00  0.00    -0.302 OA
BRANCH  24  25
ATOM     25  C           0     135.027 135.410 136.647  0.00  0.00     0.358 C 
ATOM     26  N           0     134.315 135.530 137.785  0.00  0.00    -0.346 N 
ATOM     27  H           0     133.612 134.893 137.986  0.00  0.00     0.161 HD
ATOM     28  H           0     134.506 136.255 138.402  0.00  0.00     0.161 HD
ATOM     29  O           0     135.908 136.208 136.394  0.00  0.00    -0.239 OA
ENDBRANCH  24  25
ENDBRANCH  23  24
ENDBRANCH   6  23
BRANCH  19  30
ATOM     30  O           0     130.470 132.657 135.870  0.00  0.00    -0.362 OA
ATOM     31  H           0     129.550 132.533 135.602  0.00  0.00     0.213 HD
ENDBRANCH  19  30
BRANCH  19  32
ATOM     32  O           0     131.861 134.548 135.701  0.00  0.00    -0.362 OA
ATOM     33  H           0     131.888 134.243 136.618  0.00  0.00     0.213 HD
ENDBRANCH  19  32
TORSDOF 5
ENDMDL
MODEL 8
REMARK VINA RESULT:      -6.6      9.030     11.256
REMARK  5 active torsions:
REMARK  status: ('A' for Active; 'I' for Inactive)
REMARK    1  A    between atoms: C_6  and  C_7 
REMARK    2  A    between atoms: C_7  and  O_8 
REMARK    3  A    between atoms: O_8  and  C_9 
REMARK       I    between atoms: C_9  and  N_10 
REMARK    4  A    between atoms: C_24  and  O_25 
REMARK    5  A    between atoms: C_24  and  O_26 
ROOT
ATOM      1  N           0     128.990 132.617 132.266  0.00  0.00    -0.235 N 
ATOM      2  H           0     128.366 131.917 132.515  0.00  0.00     0.174 HD
ATOM      3  H           0     128.875 133.094 131.429  0.00  0.00     0.174 HD
ATOM      4  C           0     129.977 132.922 133.060  0.00  0.00     0.672 C 
ATOM      5  N           0     130.177 132.275 134.267  0.00  0.00    -0.218 N 
ATOM      6  C           0     131.540 132.174 134.782  0.00  0.00     0.151 C 
ATOM      7  C           0     132.251 133.513 134.815  0.00  0.00     0.180 C 
ATOM      8  N           0     131.770 134.289 135.978  0.00  0.00    -0.216 N 
ATOM      9  C           0     131.642 135.598 135.581  0.00  0.00     0.670 C 
ATOM     10  N           0     131.594 136.610 136.400  0.00  0.00    -0.235 N 
ATOM     11  H           0     131.648 136.463 137.357  0.00  0.00     0.174 HD
ATOM     12  H           0     131.503 137.511 136.053  0.00  0.00     0.174 HD
ATOM     13  C           0     131.943 134.409 133.627  0.00  0.00     0.217 C 
ATOM     14  N           0     131.573 135.707 134.214  0.00  0.00    -0.191 N 
ATOM     15  N           0     130.887 133.902 132.750  0.00  0.00    -0.179 N 
ATOM     16  C           0     131.037 134.602 131.466  0.00  0.00     0.106 C 
ATOM     17  C           0     130.120 135.826 131.427  0.00  0.00     0.033 C 
ATOM     18  C           0     132.513 135.046 131.371  0.00  0.00     0.098 C 
ATOM     19  C           0     133.165 134.578 132.701  0.00  0.00     0.210 C 
ATOM     20  H           0     129.431 131.898 134.759  0.00  0.00     0.178 HD
ATOM     21  H           0     131.579 133.937 136.862  0.00  0.00     0.178 HD
ATOM     22  H           0     131.325 136.504 133.720  0.00  0.00     0.180 HD
ENDROOT
BRANCH   6  23
ATOM     23  C           0     132.335 131.216 133.892  0.00  0.00     0.208 C 
BRANCH  23  24
ATOM     24  O           0     133.397 130.602 134.668  0.00  0.00    -0.302 OA
BRANCH  24  25
ATOM     25  C           0     134.520 130.179 134.057  0.00  0.00     0.358 C 
ATOM     26  N           0     135.437 131.073 133.638  0.00  0.00    -0.346 N 
ATOM     27  H           0     135.287 132.022 133.776  0.00  0.00     0.161 HD
ATOM     28  H           0     136.246 130.768 133.198  0.00  0.00     0.161 HD
ATOM     29  O           0     134.707 128.991 133.884  0.00  0.00    -0.239 OA
ENDBRANCH  24  25
ENDBRANCH  23  24
ENDBRANCH   6  23
BRANCH  19  30
ATOM     30  O           0     134.060 135.572 133.204  0.00  0.00    -0.362 OA
ATOM     31  H           0     133.626 135.978 133.966  0.00  0.00     0.213 HD
ENDBRANCH  19  30
BRANCH  19  32
ATOM     32  O           0     133.838 133.330 132.525  0.00  0.00    -0.362 OA
ATOM     33  H           0     133.282 132.652 132.933  0.00  0.00     0.213 HD
ENDBRANCH  19  32
TORSDOF 5
ENDMDL
MODEL 9
REMARK VINA RESULT:      -6.6      5.628     10.204
REMARK  5 active torsions:
REMARK  status: ('A' for Active; 'I' for Inactive)
REMARK    1  A    between atoms: C_6  and  C_7 
REMARK    2  A    between atoms: C_7  and  O_8 
REMARK    3  A    between atoms: O_8  and  C_9 
REMARK       I    between atoms: C_9  and  N_10 
REMARK    4  A    between atoms: C_24  and  O_25 
REMARK    5  A    between atoms: C_24  and  O_26 
ROOT
ATOM      1  N           0     130.486 136.448 133.444  0.00  0.00    -0.235 N 
ATOM      2  H           0     130.575 137.412 133.506  0.00  0.00     0.174 HD
ATOM      3  H           0     129.686 136.060 133.056  0.00  0.00     0.174 HD
ATOM      4  C           0     131.442 135.676 133.876  0.00  0.00     0.672 C 
ATOM      5  N           0     132.604 136.184 134.430  0.00  0.00    -0.218 N 
ATOM      6  C           0     133.307 135.378 135.425  0.00  0.00     0.151 C 
ATOM      7  C           0     133.564 133.961 134.951  0.00  0.00     0.180 C 
ATOM      8  N           0     134.706 133.963 134.011  0.00  0.00    -0.216 N 
ATOM      9  C           0     134.409 133.086 132.996  0.00  0.00     0.670 C 
ATOM     10  N           0     135.298 132.562 132.199  0.00  0.00    -0.235 N 
ATOM     11  H           0     136.236 132.786 132.303  0.00  0.00     0.174 HD
ATOM     12  H           0     135.021 131.947 131.502  0.00  0.00     0.174 HD
ATOM     13  C           0     132.427 133.360 134.142  0.00  0.00     0.217 C 
ATOM     14  N           0     133.063 132.828 132.927  0.00  0.00    -0.191 N 
ATOM     15  N           0     131.360 134.306 133.812  0.00  0.00    -0.179 N 
ATOM     16  C           0     130.180 133.502 133.465  0.00  0.00     0.106 C 
ATOM     17  C           0     130.110 133.301 131.950  0.00  0.00     0.033 C 
ATOM     18  C           0     130.346 132.139 134.171  0.00  0.00     0.098 C 
ATOM     19  C           0     131.714 132.226 134.904  0.00  0.00     0.210 C 
ATOM     20  H           0     132.943 137.053 134.164  0.00  0.00     0.178 HD
ATOM     21  H           0     135.517 134.489 134.095  0.00  0.00     0.178 HD
ATOM     22  H           0     132.609 132.371 132.201  0.00  0.00     0.180 HD
ENDROOT
BRANCH   6  23
ATOM     23  C           0     132.466 135.326 136.702  0.00  0.00     0.208 C 
BRANCH  23  24
ATOM     24  O           0     133.180 134.579 137.722  0.00  0.00    -0.302 OA
BRANCH  24  25
ATOM     25  C           0     133.027 134.897 139.021  0.00  0.00     0.358 C 
ATOM     26  N           0     133.505 136.067 139.489  0.00  0.00    -0.346 N 
ATOM     27  H           0     133.961 136.679 138.890  0.00  0.00     0.161 HD
ATOM     28  H           0     133.395 136.296 140.426  0.00  0.00     0.161 HD
ATOM     29  O           0     132.457 134.130 139.771  0.00  0.00    -0.239 OA
ENDBRANCH  24  25
ENDBRANCH  23  24
ENDBRANCH   6  23
BRANCH  19  30
ATOM     30  O           0     132.431 130.995 134.787  0.00  0.00    -0.362 OA
ATOM     31  H           0     132.298 130.516 135.615  0.00  0.00     0.213 HD
ENDBRANCH  19  30
BRANCH  19  32
ATOM     32  O           0     131.532 132.580 136.277  0.00  0.00    -0.362 OA
ATOM     33  H           0     130.596 132.794 136.389  0.00  0.00     0.213 HD
ENDBRANCH  19  32
TORSDOF 5
ENDMDL
