MODEL 1
REMARK VINA RESULT:      -8.0      0.000      0.000
REMARK  5 active torsions:
REMARK  status: ('A' for Active; 'I' for Inactive)
REMARK    1  A    between atoms: C_6  and  C_7 
REMARK    2  A    between atoms: C_7  and  O_8 
REMARK    3  A    between atoms: O_8  and  C_9 
REMARK       I    between atoms: C_9  and  N_10 
REMARK    4  A    between atoms: C_23  and  O_24 
REMARK    5  A    between atoms: C_23  and  O_25 
ROOT
ATOM      1  N           0     135.141 136.825 143.218  0.00  0.00    -0.235 N 
ATOM      2  H           0     134.366 137.350 142.963  0.00  0.00     0.174 HD
ATOM      3  H           0     135.983 137.267 143.411  0.00  0.00     0.174 HD
ATOM      4  C           0     135.050 135.528 143.307  0.00  0.00     0.672 C 
ATOM      5  N           0     133.870 134.852 143.047  0.00  0.00    -0.218 N 
ATOM      6  C           0     133.953 133.480 142.556  0.00  0.00     0.151 C 
ATOM      7  C           0     134.848 132.605 143.413  0.00  0.00     0.180 C 
ATOM      8  N           0     134.124 132.232 144.646  0.00  0.00    -0.216 N 
ATOM      9  C           0     135.023 132.277 145.684  0.00  0.00     0.670 C 
ATOM     10  N           0     134.852 131.677 146.828  0.00  0.00    -0.235 N 
ATOM     11  H           0     134.049 131.157 146.988  0.00  0.00     0.174 HD
ATOM     12  H           0     135.529 131.749 147.520  0.00  0.00     0.174 HD
ATOM     13  C           0     136.098 133.305 143.920  0.00  0.00     0.217 C 
ATOM     14  N           0     136.125 133.032 145.367  0.00  0.00    -0.191 N 
ATOM     15  N           0     136.118 134.744 143.658  0.00  0.00    -0.183 N 
ATOM     16  C           0     137.530 135.146 143.795  0.00  0.00     0.150 C 
ATOM     17  C           0     138.325 133.972 143.174  0.00  0.00     0.093 C 
ATOM     18  C           0     137.374 132.751 143.261  0.00  0.00     0.209 C 
ATOM     19  H           0     133.012 135.279 143.189  0.00  0.00     0.178 HD
ATOM     20  H           0     133.185 131.997 144.712  0.00  0.00     0.178 HD
ATOM     21  H           0     136.806 133.332 145.989  0.00  0.00     0.180 HD
ENDROOT
BRANCH   6  22
ATOM     22  C           0     134.503 133.499 141.129  0.00  0.00     0.208 C 
BRANCH  22  23
ATOM     23  O           0     133.416 133.719 140.193  0.00  0.00    -0.302 OA
BRANCH  23  24
ATOM     24  C           0     133.437 134.790 139.376  0.00  0.00     0.358 C 
ATOM     25  N           0     133.553 136.029 139.892  0.00  0.00    -0.346 N 
ATOM     26  H           0     133.623 136.151 140.852  0.00  0.00     0.161 HD
ATOM     27  H           0     133.568 136.800 139.304  0.00  0.00     0.161 HD
ATOM     28  O           0     133.350 134.638 138.173  0.00  0.00    -0.239 OA
ENDBRANCH  23  24
ENDBRANCH  22  23
ENDBRANCH   6  22
BRANCH  18  29
ATOM     29  O           0     137.953 131.725 144.068  0.00  0.00    -0.362 OA
ATOM     30  H           0     138.246 132.147 144.888  0.00  0.00     0.213 HD
ENDBRANCH  18  29
BRANCH  18  31
ATOM     31  O           0     137.081 132.254 141.953  0.00  0.00    -0.362 OA
ATOM     32  H           0     137.390 132.921 141.325  0.00  0.00     0.213 HD
ENDBRANCH  18  31
TORSDOF 5
ENDMDL
MODEL 2
REMARK VINA RESULT:      -7.7      1.955      5.540
REMARK  5 active torsions:
REMARK  status: ('A' for Active; 'I' for Inactive)
REMARK    1  A    between atoms: C_6  and  C_7 
REMARK    2  A    between atoms: C_7  and  O_8 
REMARK    3  A    between atoms: O_8  and  C_9 
REMARK       I    between atoms: C_9  and  N_10 
REMARK    4  A    between atoms: C_23  and  O_24 
REMARK    5  A    between atoms: C_23  and  O_25 
ROOT
ATOM      1  N           0     135.501 132.678 147.080  0.00  0.00    -0.235 N 
ATOM      2  H           0     135.800 132.927 147.968  0.00  0.00     0.174 HD
ATOM      3  H           0     134.889 131.934 146.965  0.00  0.00     0.174 HD
ATOM      4  C           0     135.917 133.345 146.040  0.00  0.00     0.672 C 
ATOM      5  N           0     136.787 134.417 146.152  0.00  0.00    -0.218 N 
ATOM      6  C           0     137.675 134.706 145.030  0.00  0.00     0.151 C 
ATOM      7  C           0     136.937 134.802 143.709  0.00  0.00     0.180 C 
ATOM      8  N           0     136.244 136.105 143.633  0.00  0.00    -0.216 N 
ATOM      9  C           0     135.019 135.889 143.050  0.00  0.00     0.670 C 
ATOM     10  N           0     134.296 136.822 142.498  0.00  0.00    -0.235 N 
ATOM     11  H           0     134.616 137.738 142.482  0.00  0.00     0.174 HD
ATOM     12  H           0     133.438 136.601 142.103  0.00  0.00     0.174 HD
ATOM     13  C           0     135.820 133.783 143.547  0.00  0.00     0.217 C 
ATOM     14  N           0     134.650 134.569 143.120  0.00  0.00    -0.191 N 
ATOM     15  N           0     135.528 133.028 144.765  0.00  0.00    -0.183 N 
ATOM     16  C           0     134.784 131.836 144.316  0.00  0.00     0.150 C 
ATOM     17  C           0     135.472 131.432 142.990  0.00  0.00     0.093 C 
ATOM     18  C           0     136.157 132.726 142.481  0.00  0.00     0.209 C 
ATOM     19  H           0     136.804 134.961 146.954  0.00  0.00     0.178 HD
ATOM     20  H           0     136.590 136.958 143.938  0.00  0.00     0.178 HD
ATOM     21  H           0     133.770 134.214 142.921  0.00  0.00     0.180 HD
ENDROOT
BRANCH   6  22
ATOM     22  C           0     138.722 133.596 144.931  0.00  0.00     0.208 C 
BRANCH  22  23
ATOM     23  O           0     138.719 132.815 146.155  0.00  0.00    -0.302 OA
BRANCH  23  24
ATOM     24  C           0     139.096 131.523 146.131  0.00  0.00     0.358 C 
ATOM     25  N           0     138.180 130.558 145.916  0.00  0.00    -0.346 N 
ATOM     26  H           0     137.249 130.794 145.778  0.00  0.00     0.161 HD
ATOM     27  H           0     138.451 129.626 145.899  0.00  0.00     0.161 HD
ATOM     28  O           0     140.262 131.227 146.303  0.00  0.00    -0.239 OA
ENDBRANCH  23  24
ENDBRANCH  22  23
ENDBRANCH   6  22
BRANCH  18  29
ATOM     29  O           0     135.623 133.105 141.211  0.00  0.00    -0.362 OA
ATOM     30  H           0     134.665 132.977 141.261  0.00  0.00     0.213 HD
ENDBRANCH  18  29
BRANCH  18  31
ATOM     31  O           0     137.571 132.541 142.394  0.00  0.00    -0.362 OA
ATOM     32  H           0     137.846 132.889 141.534  0.00  0.00     0.213 HD
ENDBRANCH  18  31
TORSDOF 5
ENDMDL
MODEL 3
REMARK VINA RESULT:      -7.5      2.602      3.722
REMARK  5 active torsions:
REMARK  status: ('A' for Active; 'I' for Inactive)
REMARK    1  A    between atoms: C_6  and  C_7 
REMARK    2  A    between atoms: C_7  and  O_8 
REMARK    3  A    between atoms: O_8  and  C_9 
REMARK       I    between atoms: C_9  and  N_10 
REMARK    4  A    between atoms: C_23  and  O_24 
REMARK    5  A    between atoms: C_23  and  O_25 
ROOT
ATOM      1  N           0     136.204 134.809 147.686  0.00  0.00    -0.235 N 
ATOM      2  H           0     135.350 134.731 148.139  0.00  0.00     0.174 HD
ATOM      3  H           0     136.748 135.603 147.810  0.00  0.00     0.174 HD
ATOM      4  C           0     136.622 133.847 146.912  0.00  0.00     0.672 C 
ATOM      5  N           0     135.885 132.694 146.706  0.00  0.00    -0.218 N 
ATOM      6  C           0     136.049 131.986 145.440  0.00  0.00     0.151 C 
ATOM      7  C           0     137.503 131.712 145.107  0.00  0.00     0.180 C 
ATOM      8  N           0     137.983 130.578 145.924  0.00  0.00    -0.216 N 
ATOM      9  C           0     139.266 130.867 146.321  0.00  0.00     0.670 C 
ATOM     10  N           0     140.123 129.977 146.735  0.00  0.00    -0.235 N 
ATOM     11  H           0     139.868 129.042 146.777  0.00  0.00     0.174 HD
ATOM     12  H           0     141.015 130.249 147.001  0.00  0.00     0.174 HD
ATOM     13  C           0     138.447 132.848 145.467  0.00  0.00     0.217 C 
ATOM     14  N           0     139.534 132.210 146.228  0.00  0.00    -0.191 N 
ATOM     15  N           0     137.818 133.915 146.246  0.00  0.00    -0.183 N 
ATOM     16  C           0     138.713 135.078 146.108  0.00  0.00     0.150 C 
ATOM     17  C           0     139.195 135.019 144.638  0.00  0.00     0.093 C 
ATOM     18  C           0     139.020 133.538 144.217  0.00  0.00     0.209 C 
ATOM     19  H           0     135.277 132.365 147.385  0.00  0.00     0.178 HD
ATOM     20  H           0     137.484 129.775 146.141  0.00  0.00     0.178 HD
ATOM     21  H           0     140.309 132.661 146.598  0.00  0.00     0.180 HD
ENDROOT
BRANCH   6  22
ATOM     22  C           0     135.438 132.830 144.320  0.00  0.00     0.208 C 
BRANCH  22  23
ATOM     23  O           0     135.501 132.095 143.070  0.00  0.00    -0.302 OA
BRANCH  23  24
ATOM     24  C           0     134.968 132.622 141.950  0.00  0.00     0.358 C 
ATOM     25  N           0     135.769 133.183 141.023  0.00  0.00    -0.346 N 
ATOM     26  H           0     136.729 133.208 141.162  0.00  0.00     0.161 HD
ATOM     27  H           0     135.386 133.564 140.217  0.00  0.00     0.161 HD
ATOM     28  O           0     133.766 132.591 141.777  0.00  0.00    -0.239 OA
ENDBRANCH  23  24
ENDBRANCH  22  23
ENDBRANCH   6  22
BRANCH  18  29
ATOM     29  O           0     140.281 132.969 143.861  0.00  0.00    -0.362 OA
ATOM     30  H           0     140.173 132.576 142.984  0.00  0.00     0.213 HD
ENDBRANCH  18  29
BRANCH  18  31
ATOM     31  O           0     138.100 133.435 143.128  0.00  0.00    -0.362 OA
ATOM     32  H           0     138.289 132.598 142.681  0.00  0.00     0.213 HD
ENDBRANCH  18  31
TORSDOF 5
ENDMDL
MODEL 4
REMARK VINA RESULT:      -7.2      3.187      5.775
REMARK  5 active torsions:
REMARK  status: ('A' for Active; 'I' for Inactive)
REMARK    1  A    between atoms: C_6  and  C_7 
REMARK    2  A    between atoms: C_7  and  O_8 
REMARK    3  A    between atoms: O_8  and  C_9 
REMARK       I    between atoms: C_9  and  N_10 
REMARK    4  A    between atoms: C_23  and  O_24 
REMARK    5  A    between atoms: C_23  and  O_25 
ROOT
ATOM      1  N           0     138.706 130.502 145.989  0.00  0.00    -0.235 N 
ATOM      2  H           0     138.304 129.810 146.537  0.00  0.00     0.174 HD
ATOM      3  H           0     139.657 130.479 145.799  0.00  0.00     0.174 HD
ATOM      4  C           0     137.968 131.460 145.502  0.00  0.00     0.672 C 
ATOM      5  N           0     136.606 131.535 145.739  0.00  0.00    -0.218 N 
ATOM      6  C           0     135.974 132.851 145.736  0.00  0.00     0.151 C 
ATOM      7  C           0     136.307 133.655 144.494  0.00  0.00     0.180 C 
ATOM      8  N           0     135.505 133.151 143.359  0.00  0.00    -0.216 N 
ATOM      9  C           0     136.311 133.157 142.247  0.00  0.00     0.670 C 
ATOM     10  N           0     135.869 133.129 141.022  0.00  0.00    -0.235 N 
ATOM     11  H           0     134.914 133.101 140.852  0.00  0.00     0.174 HD
ATOM     12  H           0     136.494 133.136 140.280  0.00  0.00     0.174 HD
ATOM     13  C           0     137.744 133.504 144.022  0.00  0.00     0.217 C 
ATOM     14  N           0     137.641 133.197 142.586  0.00  0.00    -0.191 N 
ATOM     15  N           0     138.491 132.463 144.728  0.00  0.00    -0.183 N 
ATOM     16  C           0     139.912 132.762 144.474  0.00  0.00     0.150 C 
ATOM     17  C           0     139.993 134.308 144.526  0.00  0.00     0.093 C 
ATOM     18  C           0     138.554 134.796 144.223  0.00  0.00     0.209 C 
ATOM     19  H           0     136.086 130.733 145.903  0.00  0.00     0.178 HD
ATOM     20  H           0     134.578 132.867 143.393  0.00  0.00     0.178 HD
ATOM     21  H           0     138.385 133.050 141.982  0.00  0.00     0.180 HD
ENDROOT
BRANCH   6  22
ATOM     22  C           0     136.445 133.627 146.967  0.00  0.00     0.208 C 
BRANCH  22  23
ATOM     23  O           0     135.523 133.399 148.065  0.00  0.00    -0.302 OA
BRANCH  23  24
ATOM     24  C           0     135.266 132.144 148.480  0.00  0.00     0.358 C 
ATOM     25  N           0     133.997 131.693 148.514  0.00  0.00    -0.346 N 
ATOM     26  H           0     133.268 132.272 148.240  0.00  0.00     0.161 HD
ATOM     27  H           0     133.811 130.789 148.813  0.00  0.00     0.161 HD
ATOM     28  O           0     136.179 131.419 148.822  0.00  0.00    -0.239 OA
ENDBRANCH  23  24
ENDBRANCH  22  23
ENDBRANCH   6  22
BRANCH  18  29
ATOM     29  O           0     138.537 135.590 143.036  0.00  0.00    -0.362 OA
ATOM     30  H           0     138.192 136.459 143.285  0.00  0.00     0.213 HD
ENDBRANCH  18  29
BRANCH  18  31
ATOM     31  O           0     138.037 135.540 145.329  0.00  0.00    -0.362 OA
ATOM     32  H           0     138.420 136.426 145.273  0.00  0.00     0.213 HD
ENDBRANCH  18  31
TORSDOF 5
ENDMDL
MODEL 5
REMARK VINA RESULT:      -7.0      2.410      5.237
REMARK  5 active torsions:
REMARK  status: ('A' for Active; 'I' for Inactive)
REMARK    1  A    between atoms: C_6  and  C_7 
REMARK    2  A    between atoms: C_7  and  O_8 
REMARK    3  A    between atoms: O_8  and  C_9 
REMARK       I    between atoms: C_9  and  N_10 
REMARK    4  A    between atoms: C_23  and  O_24 
REMARK    5  A    between atoms: C_23  and  O_25 
ROOT
ATOM      1  N           0     136.322 134.637 146.843  0.00  0.00    -0.235 N 
ATOM      2  H           0     136.803 135.446 147.075  0.00  0.00     0.174 HD
ATOM      3  H           0     135.870 134.126 147.534  0.00  0.00     0.174 HD
ATOM      4  C           0     136.278 134.236 145.604  0.00  0.00     0.672 C 
ATOM      5  N           0     136.901 134.932 144.582  0.00  0.00    -0.218 N 
ATOM      6  C           0     137.354 134.184 143.412  0.00  0.00     0.151 C 
ATOM      7  C           0     136.267 133.306 142.824  0.00  0.00     0.180 C 
ATOM      8  N           0     135.326 134.146 142.054  0.00  0.00    -0.216 N 
ATOM      9  C           0     134.059 133.673 142.290  0.00  0.00     0.670 C 
ATOM     10  N           0     133.031 133.917 141.526  0.00  0.00    -0.235 N 
ATOM     11  H           0     133.137 134.464 140.732  0.00  0.00     0.174 HD
ATOM     12  H           0     132.162 133.551 141.752  0.00  0.00     0.174 HD
ATOM     13  C           0     135.386 132.628 143.862  0.00  0.00     0.217 C 
ATOM     14  N           0     134.007 132.912 143.432  0.00  0.00    -0.191 N 
ATOM     15  N           0     135.616 133.096 145.228  0.00  0.00    -0.183 N 
ATOM     16  C           0     135.039 132.057 146.100  0.00  0.00     0.150 C 
ATOM     17  C           0     135.389 130.725 145.391  0.00  0.00     0.093 C 
ATOM     18  C           0     135.616 131.107 143.906  0.00  0.00     0.209 C 
ATOM     19  H           0     137.033 135.890 144.642  0.00  0.00     0.178 HD
ATOM     20  H           0     135.561 134.896 141.484  0.00  0.00     0.178 HD
ATOM     21  H           0     133.200 132.611 143.877  0.00  0.00     0.180 HD
ENDROOT
BRANCH   6  22
ATOM     22  C           0     138.536 133.302 143.818  0.00  0.00     0.208 C 
BRANCH  22  23
ATOM     23  O           0     139.496 134.091 144.567  0.00  0.00    -0.302 OA
BRANCH  23  24
ATOM     24  C           0     140.306 133.495 145.462  0.00  0.00     0.358 C 
ATOM     25  N           0     140.241 133.840 146.763  0.00  0.00    -0.346 N 
ATOM     26  H           0     139.611 134.518 147.055  0.00  0.00     0.161 HD
ATOM     27  H           0     140.825 133.412 147.409  0.00  0.00     0.161 HD
ATOM     28  O           0     141.095 132.647 145.097  0.00  0.00    -0.239 OA
ENDBRANCH  23  24
ENDBRANCH  22  23
ENDBRANCH   6  22
BRANCH  18  29
ATOM     29  O           0     134.677 130.431 143.069  0.00  0.00    -0.362 OA
ATOM     30  H           0     133.915 131.020 142.971  0.00  0.00     0.213 HD
ENDBRANCH  18  29
BRANCH  18  31
ATOM     31  O           0     136.954 130.796 143.511  0.00  0.00    -0.362 OA
ATOM     32  H           0     137.541 131.219 144.153  0.00  0.00     0.213 HD
ENDBRANCH  18  31
TORSDOF 5
ENDMDL
MODEL 6
REMARK VINA RESULT:      -6.9      3.324      6.108
REMARK  5 active torsions:
REMARK  status: ('A' for Active; 'I' for Inactive)
REMARK    1  A    between atoms: C_6  and  C_7 
REMARK    2  A    between atoms: C_7  and  O_8 
REMARK    3  A    between atoms: O_8  and  C_9 
REMARK       I    between atoms: C_9  and  N_10 
REMARK    4  A    between atoms: C_23  and  O_24 
REMARK    5  A    between atoms: C_23  and  O_25 
ROOT
ATOM      1  N           0     139.102 130.436 145.983  0.00  0.00    -0.235 N 
ATOM      2  H           0     139.270 129.587 146.421  0.00  0.00     0.174 HD
ATOM      3  H           0     139.840 130.940 145.604  0.00  0.00     0.174 HD
ATOM      4  C           0     137.887 130.900 145.900  0.00  0.00     0.672 C 
ATOM      5  N           0     136.801 130.217 146.421  0.00  0.00    -0.218 N 
ATOM      6  C           0     135.643 130.991 146.860  0.00  0.00     0.151 C 
ATOM      7  C           0     135.158 131.965 145.804  0.00  0.00     0.180 C 
ATOM      8  N           0     134.404 131.226 144.770  0.00  0.00    -0.216 N 
ATOM      9  C           0     134.732 131.766 143.551  0.00  0.00     0.670 C 
ATOM     10  N           0     134.016 131.627 142.471  0.00  0.00    -0.235 N 
ATOM     11  H           0     133.193 131.114 142.498  0.00  0.00     0.174 HD
ATOM     12  H           0     134.307 132.036 141.641  0.00  0.00     0.174 HD
ATOM     13  C           0     136.273 132.646 145.027  0.00  0.00     0.217 C 
ATOM     14  N           0     135.908 132.472 143.611  0.00  0.00    -0.191 N 
ATOM     15  N           0     137.602 132.097 145.297  0.00  0.00    -0.183 N 
ATOM     16  C           0     138.551 133.127 144.837  0.00  0.00     0.150 C 
ATOM     17  C           0     137.885 134.466 145.237  0.00  0.00     0.093 C 
ATOM     18  C           0     136.374 134.145 145.360  0.00  0.00     0.209 C 
ATOM     19  H           0     136.809 129.250 146.492  0.00  0.00     0.178 HD
ATOM     20  H           0     133.788 130.492 144.924  0.00  0.00     0.178 HD
ATOM     21  H           0     136.411 132.802 142.850  0.00  0.00     0.180 HD
ENDROOT
BRANCH   6  22
ATOM     22  C           0     136.022 131.775 148.118  0.00  0.00     0.208 C 
BRANCH  22  23
ATOM     23  O           0     134.827 132.345 148.711  0.00  0.00    -0.302 OA
BRANCH  23  24
ATOM     24  C           0     133.930 131.546 149.320  0.00  0.00     0.358 C 
ATOM     25  N           0     132.618 131.667 149.036  0.00  0.00    -0.346 N 
ATOM     26  H           0     132.319 132.329 148.393  0.00  0.00     0.161 HD
ATOM     27  H           0     131.972 131.092 149.475  0.00  0.00     0.161 HD
ATOM     28  O           0     134.304 130.717 150.126  0.00  0.00    -0.239 OA
ENDBRANCH  23  24
ENDBRANCH  22  23
ENDBRANCH   6  22
BRANCH  18  29
ATOM     29  O           0     135.623 134.920 144.424  0.00  0.00    -0.362 OA
ATOM     30  H           0     136.110 135.745 144.290  0.00  0.00     0.213 HD
ENDBRANCH  18  29
BRANCH  18  31
ATOM     31  O           0     135.919 134.389 146.692  0.00  0.00    -0.362 OA
ATOM     32  H           0     135.899 135.349 146.808  0.00  0.00     0.213 HD
ENDBRANCH  18  31
TORSDOF 5
ENDMDL
MODEL 7
REMARK VINA RESULT:      -6.8      3.856      5.870
REMARK  5 active torsions:
REMARK  status: ('A' for Active; 'I' for Inactive)
REMARK    1  A    between atoms: C_6  and  C_7 
REMARK    2  A    between atoms: C_7  and  O_8 
REMARK    3  A    between atoms: O_8  and  C_9 
REMARK       I    between atoms: C_9  and  N_10 
REMARK    4  A    between atoms: C_23  and  O_24 
REMARK    5  A    between atoms: C_23  and  O_25 
ROOT
ATOM      1  N           0     135.974 134.838 147.600  0.00  0.00    -0.235 N 
ATOM      2  H           0     136.342 135.733 147.537  0.00  0.00     0.174 HD
ATOM      3  H           0     135.432 134.590 148.366  0.00  0.00     0.174 HD
ATOM      4  C           0     136.204 133.969 146.656  0.00  0.00     0.672 C 
ATOM      5  N           0     136.967 134.276 145.542  0.00  0.00    -0.218 N 
ATOM      6  C           0     137.693 133.195 144.882  0.00  0.00     0.151 C 
ATOM      7  C           0     136.808 132.005 144.566  0.00  0.00     0.180 C 
ATOM      8  N           0     135.982 132.316 143.380  0.00  0.00    -0.216 N 
ATOM      9  C           0     134.729 131.799 143.601  0.00  0.00     0.670 C 
ATOM     10  N           0     133.858 131.560 142.661  0.00  0.00    -0.235 N 
ATOM     11  H           0     134.081 131.748 141.736  0.00  0.00     0.174 HD
ATOM     12  H           0     132.990 131.193 142.886  0.00  0.00     0.174 HD
ATOM     13  C           0     135.789 131.683 145.647  0.00  0.00     0.217 C 
ATOM     14  N           0     134.506 131.564 144.935  0.00  0.00    -0.191 N 
ATOM     15  N           0     135.711 132.692 146.704  0.00  0.00    -0.183 N 
ATOM     16  C           0     135.047 132.020 147.836  0.00  0.00     0.150 C 
ATOM     17  C           0     135.623 130.583 147.820  0.00  0.00     0.093 C 
ATOM     18  C           0     136.112 130.362 146.366  0.00  0.00     0.209 C 
ATOM     19  H           0     137.017 135.185 145.209  0.00  0.00     0.178 HD
ATOM     20  H           0     136.272 132.797 142.589  0.00  0.00     0.178 HD
ATOM     21  H           0     133.650 131.354 145.339  0.00  0.00     0.180 HD
ENDROOT
BRANCH   6  22
ATOM     22  C           0     138.830 132.735 145.796  0.00  0.00     0.208 C 
BRANCH  22  23
ATOM     23  O           0     139.820 133.790 145.907  0.00  0.00    -0.302 OA
BRANCH  23  24
ATOM     24  C           0     140.011 134.414 147.086  0.00  0.00     0.358 C 
ATOM     25  N           0     141.095 134.127 147.832  0.00  0.00    -0.346 N 
ATOM     26  H           0     141.739 133.471 147.521  0.00  0.00     0.161 HD
ATOM     27  H           0     141.232 134.576 148.681  0.00  0.00     0.161 HD
ATOM     28  O           0     139.205 135.236 147.475  0.00  0.00    -0.239 OA
ENDBRANCH  23  24
ENDBRANCH  22  23
ENDBRANCH   6  22
BRANCH  18  29
ATOM     29  O           0     135.406 129.275 145.763  0.00  0.00    -0.362 OA
ATOM     30  H           0     134.476 129.536 145.722  0.00  0.00     0.213 HD
ENDBRANCH  18  29
BRANCH  18  31
ATOM     31  O           0     137.520 130.116 146.346  0.00  0.00    -0.362 OA
ATOM     32  H           0     137.905 130.752 145.726  0.00  0.00     0.213 HD
ENDBRANCH  18  31
TORSDOF 5
ENDMDL
MODEL 8
REMARK VINA RESULT:      -6.7      2.852      4.576
REMARK  5 active torsions:
REMARK  status: ('A' for Active; 'I' for Inactive)
REMARK    1  A    between atoms: C_6  and  C_7 
REMARK    2  A    between atoms: C_7  and  O_8 
REMARK    3  A    between atoms: O_8  and  C_9 
REMARK       I    between atoms: C_9  and  N_10 
REMARK    4  A    between atoms: C_23  and  O_24 
REMARK    5  A    between atoms: C_23  and  O_25 
ROOT
ATOM      1  N           0     134.002 131.647 148.440  0.00  0.00    -0.235 N 
ATOM      2  H           0     133.214 131.121 148.232  0.00  0.00     0.174 HD
ATOM      3  H           0     134.071 132.099 149.296  0.00  0.00     0.174 HD
ATOM      4  C           0     134.969 131.744 147.572  0.00  0.00     0.672 C 
ATOM      5  N           0     134.919 131.114 146.340  0.00  0.00    -0.218 N 
ATOM      6  C           0     135.647 131.715 145.226  0.00  0.00     0.151 C 
ATOM      7  C           0     137.092 132.020 145.570  0.00  0.00     0.180 C 
ATOM      8  N           0     137.874 130.766 145.542  0.00  0.00    -0.216 N 
ATOM      9  C           0     138.761 130.807 146.590  0.00  0.00     0.670 C 
ATOM     10  N           0     139.833 130.070 146.671  0.00  0.00    -0.235 N 
ATOM     11  H           0     140.045 129.443 145.962  0.00  0.00     0.174 HD
ATOM     12  H           0     140.418 130.149 147.441  0.00  0.00     0.174 HD
ATOM     13  C           0     137.298 132.547 146.981  0.00  0.00     0.217 C 
ATOM     14  N           0     138.379 131.719 147.541  0.00  0.00    -0.191 N 
ATOM     15  N           0     136.099 132.479 147.817  0.00  0.00    -0.183 N 
ATOM     16  C           0     136.349 133.409 148.934  0.00  0.00     0.150 C 
ATOM     17  C           0     137.087 134.603 148.281  0.00  0.00     0.093 C 
ATOM     18  C           0     137.717 134.028 146.987  0.00  0.00     0.209 C 
ATOM     19  H           0     134.415 130.295 146.220  0.00  0.00     0.178 HD
ATOM     20  H           0     137.779 130.045 144.899  0.00  0.00     0.178 HD
ATOM     21  H           0     138.758 131.806 148.429  0.00  0.00     0.180 HD
ENDROOT
BRANCH   6  22
ATOM     22  C           0     134.950 133.017 144.826  0.00  0.00     0.208 C 
BRANCH  22  23
ATOM     23  O           0     135.592 133.567 143.646  0.00  0.00    -0.302 OA
BRANCH  23  24
ATOM     24  C           0     135.171 134.740 143.136  0.00  0.00     0.358 C 
ATOM     25  N           0     135.846 135.874 143.406  0.00  0.00    -0.346 N 
ATOM     26  H           0     136.637 135.846 143.969  0.00  0.00     0.161 HD
ATOM     27  H           0     135.543 136.719 143.039  0.00  0.00     0.161 HD
ATOM     28  O           0     134.181 134.775 142.431  0.00  0.00    -0.239 OA
ENDBRANCH  23  24
ENDBRANCH  22  23
ENDBRANCH   6  22
BRANCH  18  29
ATOM     29  O           0     139.140 134.148 147.031  0.00  0.00    -0.362 OA
ATOM     30  H           0     139.349 134.712 147.788  0.00  0.00     0.213 HD
ENDBRANCH  18  29
BRANCH  18  31
ATOM     31  O           0     137.194 134.696 145.838  0.00  0.00    -0.362 OA
ATOM     32  H           0     137.241 134.068 145.103  0.00  0.00     0.213 HD
ENDBRANCH  18  31
TORSDOF 5
ENDMDL
MODEL 9
REMARK VINA RESULT:      -6.6      1.991      2.654
REMARK  5 active torsions:
REMARK  status: ('A' for Active; 'I' for Inactive)
REMARK    1  A    between atoms: C_6  and  C_7 
REMARK    2  A    between atoms: C_7  and  O_8 
REMARK    3  A    between atoms: O_8  and  C_9 
REMARK       I    between atoms: C_9  and  N_10 
REMARK    4  A    between atoms: C_23  and  O_24 
REMARK    5  A    between atoms: C_23  and  O_25 
ROOT
ATOM      1  N           0     136.357 135.668 143.455  0.00  0.00    -0.235 N 
ATOM      2  H           0     135.601 136.035 142.970  0.00  0.00     0.174 HD
ATOM      3  H           0     137.233 136.077 143.369  0.00  0.00     0.174 HD
ATOM      4  C           0     136.196 134.629 144.225  0.00  0.00     0.672 C 
ATOM      5  N           0     134.967 134.013 144.384  0.00  0.00    -0.218 N 
ATOM      6  C           0     134.943 132.588 144.702  0.00  0.00     0.151 C 
ATOM      7  C           0     135.831 132.238 145.880  0.00  0.00     0.180 C 
ATOM      8  N           0     135.155 132.636 147.133  0.00  0.00    -0.216 N 
ATOM      9  C           0     136.110 133.156 147.972  0.00  0.00     0.670 C 
ATOM     10  N           0     135.966 133.273 149.262  0.00  0.00    -0.235 N 
ATOM     11  H           0     135.144 132.982 149.687  0.00  0.00     0.174 HD
ATOM     12  H           0     136.682 133.649 149.798  0.00  0.00     0.174 HD
ATOM     13  C           0     137.146 133.000 145.916  0.00  0.00     0.217 C 
ATOM     14  N           0     137.234 133.538 147.284  0.00  0.00    -0.191 N 
ATOM     15  N           0     137.234 134.072 144.925  0.00  0.00    -0.183 N 
ATOM     16  C           0     138.672 134.374 144.805  0.00  0.00     0.150 C 
ATOM     17  C           0     139.363 132.992 144.897  0.00  0.00     0.093 C 
ATOM     18  C           0     138.349 132.083 145.637  0.00  0.00     0.209 C 
ATOM     19  H           0     134.143 134.515 144.288  0.00  0.00     0.178 HD
ATOM     20  H           0     134.209 132.546 147.328  0.00  0.00     0.178 HD
ATOM     21  H           0     137.964 134.069 147.639  0.00  0.00     0.180 HD
ENDROOT
BRANCH   6  22
ATOM     22  C           0     135.416 131.801 143.478  0.00  0.00     0.208 C 
BRANCH  22  23
ATOM     23  O           0     134.465 131.973 142.395  0.00  0.00    -0.302 OA
BRANCH  23  24
ATOM     24  C           0     134.609 132.992 141.527  0.00  0.00     0.358 C 
ATOM     25  N           0     135.754 133.127 140.829  0.00  0.00    -0.346 N 
ATOM     26  H           0     136.475 132.490 140.952  0.00  0.00     0.161 HD
ATOM     27  H           0     135.857 133.862 140.204  0.00  0.00     0.161 HD
ATOM     28  O           0     133.705 133.790 141.373  0.00  0.00    -0.239 OA
ENDBRANCH  23  24
ENDBRANCH  22  23
ENDBRANCH   6  22
BRANCH  18  29
ATOM     29  O           0     138.911 131.603 146.859  0.00  0.00    -0.362 OA
ATOM     30  H           0     139.329 132.361 147.291  0.00  0.00     0.213 HD
ENDBRANCH  18  29
BRANCH  18  31
ATOM     31  O           0     137.958 130.991 144.803  0.00  0.00    -0.362 OA
ATOM     32  H           0     137.223 130.548 145.249  0.00  0.00     0.213 HD
ENDBRANCH  18  31
TORSDOF 5
ENDMDL
