# created with PyMOL 2.3.4
@<TRIPOS>MOLECULE
ligand_out_0001
32 34 1                 
SMALL
USER_CHARGES
@<TRIPOS>ATOM
1	   N	135.141	136.825	143.218	N.3	1	UNK0	-0.235	
2	   N	133.870	134.852	143.047	N.3	1	UNK0	-0.218	
3	   N	134.124	132.232	144.646	N.3	1	UNK0	-0.216	
4	   N	134.852	131.677	146.828	N.3	1	UNK0	-0.235	
5	   N	136.125	133.032	145.367	N.3	1	UNK0	-0.191	
6	   N	136.118	134.744	143.658	N.3	1	UNK0	-0.183	
7	   N	133.553	136.029	139.892	N.pl3	1	UNK0	-0.346	
8	   C	135.050	135.528	143.307	C.3	1	UNK0	0.672	
9	   C	133.953	133.480	142.556	C.3	1	UNK0	0.151	
10	   C	134.848	132.605	143.413	C.3	1	UNK0	0.180	
11	   C	135.023	132.277	145.684	C.3	1	UNK0	0.670	
12	   C	136.098	133.305	143.920	C.3	1	UNK0	0.217	
13	   C	137.530	135.146	143.795	C.3	1	UNK0	0.150	
14	   C	138.325	133.972	143.174	C.3	1	UNK0	0.093	
15	   C	137.374	132.751	143.261	C.3	1	UNK0	0.209	
16	   C	134.503	133.499	141.129	C.2	1	UNK0	0.208	
17	   C	133.437	134.790	139.376	C.2	1	UNK0	0.358	
18	   O	133.416	133.719	140.193	O.2	1	UNK0	-0.302	
19	   O	133.350	134.638	138.173	O.co2	1	UNK0	-0.239	
20	   O	137.953	131.725	144.068	O.2	1	UNK0	-0.362	
21	   O	137.081	132.254	141.953	O.2	1	UNK0	-0.362	
22	   H	134.366	137.350	142.963	 H	1	UNK0	0.174	
23	   H	135.983	137.267	143.411	 H	1	UNK0	0.174	
24	   H	134.049	131.157	146.988	 H	1	UNK0	0.174	
25	   H	135.529	131.749	147.520	 H	1	UNK0	0.174	
26	   H	133.012	135.279	143.189	 H	1	UNK0	0.178	
27	   H	133.185	131.997	144.712	 H	1	UNK0	0.178	
28	   H	136.806	133.332	145.989	 H	1	UNK0	0.180	
29	   H	133.623	136.151	140.852	 H	1	UNK0	0.161	
30	   H	133.568	136.800	139.304	 H	1	UNK0	0.161	
31	   H	138.246	132.147	144.888	 H	1	UNK0	0.213	
32	   H	137.390	132.921	141.325	 H	1	UNK0	0.213	
@<TRIPOS>BOND
1 1 8 1
2 1 22 1
3 1 23 1
4 2 9 1
5 2 26 1
6 3 11 1
7 3 27 1
8 4 24 1
9 4 25 1
10 5 28 1
11 6 13 1
12 7 29 1
13 7 30 1
14 2 8 1
15 6 8 1
16 9 10 1
17 9 16 1
18 3 10 1
19 10 12 1
20 4 11 1
21 5 11 1
22 5 12 1
23 6 12 1
24 12 15 1
25 13 14 1
26 14 15 1
27 15 20 2
28 15 21 2
29 16 18 2
30 7 17 1
31 17 19 2
32 17 18 2
33 20 31 1
34 21 32 1
@<TRIPOS>SUBSTRUCTURE
1	UNK0	1	GROUP	1 ****	UNK
