# created with PyMOL 2.3.4
@<TRIPOS>MOLECULE
ligand_out_0001
31 33 1                 
SMALL
USER_CHARGES
@<TRIPOS>ATOM
1	   N	139.599	130.544	146.179	N.3	1	UNK0	-0.235	
2	   N	138.484	132.348	145.165	N.3	1	UNK0	-0.218	
3	   N	136.498	134.370	146.385	N.3	1	UNK0	-0.216	
4	   N	136.194	135.303	148.538	N.3	1	UNK0	-0.235	
5	   N	136.421	132.976	148.178	N.3	1	UNK0	-0.191	
6	   N	137.474	131.191	146.924	N.3	1	UNK0	-0.179	
7	   C	138.562	131.329	146.096	C.3	1	UNK0	0.672	
8	   C	137.165	132.751	144.685	C.3	1	UNK0	0.151	
9	   C	136.197	133.039	145.816	C.3	1	UNK0	0.180	
10	   C	136.361	134.279	147.748	C.3	1	UNK0	0.670	
11	   C	136.328	132.098	147.001	C.3	1	UNK0	0.217	
12	   C	137.199	130.087	147.855	C.3	1	UNK0	0.106	
13	   C	137.851	130.371	149.210	C.3	1	UNK0	0.033	
14	   C	135.666	130.008	148.010	C.3	1	UNK0	0.098	
15	   C	135.109	131.165	147.135	C.3	1	UNK0	0.210	
16	   C	136.591	131.628	143.819	C.2	1	UNK0	0.206	
17	   C	134.556	131.978	142.554	C.2	1	UNK0	0.254	
18	   C	133.661	133.060	142.007	C.3	1	UNK0	0.126	
19	   O	135.872	132.202	142.695	O.2	1	UNK0	-0.320	
20	   O	134.089	130.908	142.866	O.co2	1	UNK0	-0.266	
21	   O	134.024	131.823	147.794	O.2	1	UNK0	-0.362	
22	   O	134.704	130.679	145.852	O.2	1	UNK0	-0.362	
23	   H	140.350	130.666	145.576	 H	1	UNK0	0.174	
24	   H	139.623	129.841	146.846	 H	1	UNK0	0.174	
25	   H	136.160	136.199	148.168	 H	1	UNK0	0.174	
26	   H	136.103	135.168	149.494	 H	1	UNK0	0.174	
27	   H	139.286	132.787	144.840	 H	1	UNK0	0.178	
28	   H	136.747	135.163	145.886	 H	1	UNK0	0.178	
29	   H	136.506	132.685	149.099	 H	1	UNK0	0.180	
30	   H	133.359	131.147	147.980	 H	1	UNK0	0.213	
31	   H	134.435	129.758	145.974	 H	1	UNK0	0.213	
@<TRIPOS>BOND
1 1 7 1
2 1 23 1
3 1 24 1
4 2 8 1
5 2 27 1
6 3 10 1
7 3 28 1
8 4 25 1
9 4 26 1
10 5 29 1
11 6 12 1
12 2 7 1
13 6 7 1
14 8 9 1
15 8 16 1
16 3 9 1
17 9 11 1
18 4 10 1
19 5 10 1
20 5 11 1
21 6 11 1
22 11 15 1
23 12 13 1
24 12 14 1
25 14 15 1
26 15 21 2
27 15 22 2
28 16 19 2
29 17 18 1
30 17 20 2
31 17 19 2
32 21 30 1
33 22 31 1
@<TRIPOS>SUBSTRUCTURE
1	UNK0	1	GROUP	1 ****	UNK
