MODEL 1
REMARK VINA RESULT:      -7.1      0.000      0.000
REMARK  28 active torsions:
REMARK  status: ('A' for Active; 'I' for Inactive)
REMARK    1  A    between atoms: C_6  and  C_7 
REMARK    2  A    between atoms: C_7  and  O_8 
REMARK    3  A    between atoms: O_8  and  C_9 
REMARK       I    between atoms: C_9  and  N_10 
REMARK    4  A    between atoms: N_10  and  C_11 
REMARK    5  A    between atoms: C_11  and  C_12 
REMARK    6  A    between atoms: C_12  and  N_13 
REMARK       I    between atoms: N_13  and  C_14 
REMARK    7  A    between atoms: C_14  and  C_15 
REMARK    8  A    between atoms: C_15  and  C_16 
REMARK    9  A    between atoms: C_16  and  N_17 
REMARK   10  A    between atoms: C_20  and  C_21 
REMARK   11  A    between atoms: C_21  and  C_22 
REMARK   12  A    between atoms: C_22  and  C_23 
REMARK   13  A    between atoms: N_25  and  C_26 
REMARK   14  A    between atoms: C_26  and  C_27 
REMARK   15  A    between atoms: C_27  and  C_28 
REMARK   16  A    between atoms: C_28  and  N_29 
REMARK       I    between atoms: N_29  and  C_30 
REMARK   17  A    between atoms: C_30  and  C_31 
REMARK   18  A    between atoms: C_31  and  C_32 
REMARK   19  A    between atoms: C_32  and  C_33 
REMARK   20  A    between atoms: C_33  and  C_34 
REMARK   21  A    between atoms: C_34  and  C_35 
REMARK   22  A    between atoms: C_35  and  N_36 
REMARK   23  A    between atoms: C_38  and  C_39 
REMARK   24  A    between atoms: C_40  and  C_41 
REMARK   25  A    between atoms: C_41  and  C_42 
REMARK   26  A    between atoms: C_42  and  C_43 
REMARK   27  A    between atoms: C_83  and  O_84 
REMARK   28  A    between atoms: C_83  and  O_85 
ROOT
ATOM      1  C           0     134.117 132.790 143.342  0.00  0.00     0.020 C 
ENDROOT
BRANCH   1   2
ATOM      2  C           0     135.012 132.693 144.579  0.00  0.00     0.087 A 
ATOM      3  C           0     135.462 134.095 145.036  0.00  0.00     0.117 A 
ATOM      4  C           0     136.969 134.044 144.908  0.00  0.00     0.227 A 
ATOM      5  N           0     137.332 132.835 144.460  0.00  0.00    -0.288 N 
ATOM      6  O           0     137.727 134.952 145.169  0.00  0.00    -0.273 OA
ATOM      7  C           0     136.312 131.997 144.236  0.00  0.00     0.231 A 
ATOM      8  O           0     136.414 130.860 143.830  0.00  0.00    -0.273 OA
BRANCH   5   9
ATOM      9  C           0     138.729 132.462 144.229  0.00  0.00     0.144 C 
BRANCH   9  10
ATOM     10  C           0     139.569 132.844 145.450  0.00  0.00     0.123 C 
BRANCH  10  11
ATOM     11  C           0     140.004 131.595 146.171  0.00  0.00     0.219 C 
ATOM     12  N           0     139.272 131.120 147.199  0.00  0.00    -0.359 N 
ATOM     13  H           0     138.465 131.583 147.473  0.00  0.00     0.162 HD
ATOM     14  O           0     141.013 131.017 145.828  0.00  0.00    -0.274 OA
BRANCH  12  15
ATOM     15  C           0     139.695 129.907 147.900  0.00  0.00     0.142 C 
BRANCH  15  16
ATOM     16  C           0     139.751 130.180 149.405  0.00  0.00     0.144 C 
BRANCH  16  17
ATOM     17  N           0     138.540 130.895 149.817  0.00  0.00    -0.335 N 
ATOM     18  C           0     138.635 131.979 150.612  0.00  0.00     0.360 C 
ATOM     19  O           0     139.725 132.364 150.987  0.00  0.00    -0.239 OA
ATOM     20  H           0     137.670 130.587 149.519  0.00  0.00     0.164 HD
BRANCH  18  21
ATOM     21  O           0     137.523 132.635 150.990  0.00  0.00    -0.302 OA
BRANCH  21  22
ATOM     22  C           0     136.228 131.983 150.894  0.00  0.00     0.208 C 
BRANCH  22  23
ATOM     23  C           0     135.758 131.997 149.438  0.00  0.00     0.151 C 
ATOM     24  N           0     134.417 132.568 149.380  0.00  0.00    -0.218 N 
ATOM     25  C           0     133.368 131.838 149.912  0.00  0.00     0.672 C 
ATOM     26  H           0     134.263 133.439 148.979  0.00  0.00     0.178 HD
ATOM     27  N           0     132.302 132.407 150.399  0.00  0.00    -0.235 N 
ATOM     28  N           0     133.527 130.476 149.898  0.00  0.00    -0.183 N 
ATOM     29  H           0     132.225 133.374 150.396  0.00  0.00     0.174 HD
ATOM     30  H           0     131.584 131.865 150.760  0.00  0.00     0.174 HD
ATOM     31  C           0     134.611 129.728 149.260  0.00  0.00     0.217 C 
ATOM     32  C           0     132.691 129.461 150.563  0.00  0.00     0.150 C 
ATOM     33  C           0     135.815 130.582 148.895  0.00  0.00     0.180 C 
ATOM     34  C           0     134.976 128.613 150.253  0.00  0.00     0.209 C 
ATOM     35  N           0     134.164 129.138 147.987  0.00  0.00    -0.191 N 
ATOM     36  N           0     135.783 130.626 147.417  0.00  0.00    -0.216 N 
ATOM     37  C           0     134.989 129.591 146.987  0.00  0.00     0.670 C 
ATOM     38  H           0     136.240 131.270 146.853  0.00  0.00     0.178 HD
ATOM     39  N           0     135.015 129.100 145.781  0.00  0.00    -0.235 N 
ATOM     40  H           0     135.623 129.468 145.121  0.00  0.00     0.174 HD
ATOM     41  H           0     134.427 128.367 145.543  0.00  0.00     0.174 HD
ATOM     42  C           0     133.705 128.435 151.122  0.00  0.00     0.093 C 
ATOM     43  H           0     133.417 128.530 147.874  0.00  0.00     0.180 HD
BRANCH  34  44
ATOM     44  O           0     135.280 127.400 149.560  0.00  0.00    -0.362 OA
ATOM     45  H           0     135.535 127.648 148.661  0.00  0.00     0.213 HD
ENDBRANCH  34  44
BRANCH  34  46
ATOM     46  O           0     136.082 129.013 151.065  0.00  0.00    -0.362 OA
ATOM     47  H           0     136.755 129.365 150.468  0.00  0.00     0.213 HD
ENDBRANCH  34  46
ENDBRANCH  22  23
ENDBRANCH  21  22
ENDBRANCH  18  21
ENDBRANCH  16  17
ENDBRANCH  15  16
ENDBRANCH  12  15
ENDBRANCH  10  11
ENDBRANCH   9  10
ENDBRANCH   5   9
ENDBRANCH   1   2
BRANCH   1  48
ATOM     48  C           0     134.093 134.236 142.842  0.00  0.00     0.063 C 
BRANCH  48  49
ATOM     49  C           0     133.501 134.279 141.457  0.00  0.00     0.075 A 
ATOM     50  N           0     132.625 133.414 140.934  0.00  0.00    -0.135 NA
ATOM     51  N           0     132.349 133.779 139.731  0.00  0.00    -0.066 NA
ATOM     52  N           0     133.009 134.840 139.426  0.00  0.00    -0.261 N 
ATOM     53  C           0     133.758 135.196 140.495  0.00  0.00     0.142 A 
BRANCH  52  54
ATOM     54  C           0     132.959 135.542 138.141  0.00  0.00     0.154 C 
BRANCH  54  55
ATOM     55  C           0     133.503 134.630 137.039  0.00  0.00     0.041 C 
BRANCH  55  56
ATOM     56  C           0     132.339 134.073 136.218  0.00  0.00     0.124 C 
BRANCH  56  57
ATOM     57  N           0     132.670 134.142 134.792  0.00  0.00    -0.361 N 
ATOM     58  C           0     133.724 133.454 134.311  0.00  0.00     0.217 C 
ATOM     59  O           0     134.399 132.778 135.058  0.00  0.00    -0.274 OA
ATOM     60  H           0     132.130 134.682 134.195  0.00  0.00     0.162 HD
BRANCH  58  61
ATOM     61  C           0     134.064 133.525 132.845  0.00  0.00     0.103 C 
BRANCH  61  62
ATOM     62  C           0     135.063 134.659 132.607  0.00  0.00     0.009 C 
BRANCH  62  63
ATOM     63  C           0     134.472 135.975 133.117  0.00  0.00     0.002 C 
BRANCH  63  64
ATOM     64  C           0     134.283 136.938 131.943  0.00  0.00     0.020 C 
BRANCH  64  65
ATOM     65  C           0     133.355 136.302 130.906  0.00  0.00     0.129 C 
BRANCH  65  66
ATOM     66  N           0     131.964 136.445 131.343  0.00  0.00    -0.349 N 
ATOM     67  C           0     131.414 137.638 131.693  0.00  0.00     0.042 A 
ATOM     68  C           0     130.075 137.465 132.061  0.00  0.00    -0.017 A 
ATOM     69  C           0     131.957 138.931 131.728  0.00  0.00     0.030 A 
ATOM     70  C           0     129.808 135.983 131.918  0.00  0.00     0.024 A 
ATOM     71  C           0     129.307 138.532 132.453  0.00  0.00     0.010 A 
ATOM     72  C           0     131.136 135.436 131.438  0.00  0.00     0.024 A 
ATOM     73  C           0     128.713 135.731 130.880  0.00  0.00     0.027 C 
ATOM     74  C           0     129.425 135.367 133.265  0.00  0.00     0.027 C 
ATOM     75  C           0     131.427 134.094 131.150  0.00  0.00     0.026 C 
ATOM     76  C           0     129.855 139.805 132.478  0.00  0.00     0.001 A 
ATOM     77  C           0     131.178 139.996 132.118  0.00  0.00     0.002 A 
BRANCH  75  78
ATOM     78  C           0     130.469 133.137 131.322  0.00  0.00     0.002 C 
ATOM     79  C           0     130.699 131.827 130.876  0.00  0.00     0.000 C 
BRANCH  79  80
ATOM     80  C           0     129.741 130.870 131.048  0.00  0.00     0.002 C 
BRANCH  80  81
ATOM     81  C           0     129.770 130.044 132.186  0.00  0.00     0.026 C 
BRANCH  81  82
ATOM     82  C           0     130.756 129.131 132.336  0.00  0.00     0.024 A 
ATOM     83  C           0     132.220 129.417 132.599  0.00  0.00     0.024 A 
ATOM     84  C           0     132.856 128.049 132.680  0.00  0.00    -0.017 A 
ATOM     85  C           0     132.824 130.223 131.448  0.00  0.00     0.027 C 
ATOM     86  C           0     132.387 130.164 133.925  0.00  0.00     0.027 C 
ATOM     87  C           0     131.842 127.122 132.472  0.00  0.00     0.041 A 
ATOM     88  C           0     134.152 127.637 132.899  0.00  0.00     0.010 A 
ATOM     89  N           0     130.625 127.771 132.273  0.00  0.00    -0.353 N 
ATOM     90  C           0     132.155 125.764 132.488  0.00  0.00     0.030 A 
ATOM     91  C           0     129.357 127.079 132.027  0.00  0.00     0.156 C 
ATOM     92  C           0     133.453 125.354 132.709  0.00  0.00     0.002 A 
ATOM     93  C           0     134.454 126.286 132.914  0.00  0.00     0.001 A 
ENDBRANCH  81  82
ENDBRANCH  80  81
ENDBRANCH  79  80
ENDBRANCH  75  78
ENDBRANCH  65  66
ENDBRANCH  64  65
ENDBRANCH  63  64
ENDBRANCH  62  63
ENDBRANCH  61  62
ENDBRANCH  58  61
ENDBRANCH  56  57
ENDBRANCH  55  56
ENDBRANCH  54  55
ENDBRANCH  52  54
ENDBRANCH  48  49
ENDBRANCH   1  48
TORSDOF 28
ENDMDL
