# created with PyMOL 2.3.4
@<TRIPOS>MOLECULE
ligand_out_0001
93 101 1                
SMALL
USER_CHARGES
@<TRIPOS>ATOM
1	   N	137.332	132.835	144.460	N.pl3	1	UNK0	-0.288	
2	   N	139.272	131.120	147.199	N.pl3	1	UNK0	-0.359	
3	   N	138.540	130.895	149.817	N.pl3	1	UNK0	-0.335	
4	   N	134.417	132.568	149.380	N.3	1	UNK0	-0.218	
5	   N	132.302	132.407	150.399	N.3	1	UNK0	-0.235	
6	   N	133.527	130.476	149.898	N.3	1	UNK0	-0.183	
7	   N	134.164	129.138	147.987	N.3	1	UNK0	-0.191	
8	   N	135.783	130.626	147.417	N.3	1	UNK0	-0.216	
9	   N	135.015	129.100	145.781	N.3	1	UNK0	-0.235	
10	   N	132.625	133.414	140.934	N.3	1	UNK0	-0.135	
11	   N	132.349	133.779	139.731	N.3	1	UNK0	-0.066	
12	   N	133.009	134.840	139.426	N.3	1	UNK0	-0.261	
13	   N	132.670	134.142	134.792	N.pl3	1	UNK0	-0.361	
14	   N	131.964	136.445	131.343	N.3	1	UNK0	-0.349	
15	   N	130.625	127.771	132.273	N.3	1	UNK0	-0.353	
16	   C	134.117	132.790	143.342	C.3	1	UNK0	0.020	
17	   C	135.012	132.693	144.579	C.3	1	UNK0	0.087	
18	   C	135.462	134.095	145.036	C.3	1	UNK0	0.117	
19	   C	136.969	134.044	144.908	C.2	1	UNK0	0.227	
20	   C	136.312	131.997	144.236	C.2	1	UNK0	0.231	
21	   C	138.729	132.462	144.229	C.3	1	UNK0	0.144	
22	   C	139.569	132.844	145.450	C.3	1	UNK0	0.123	
23	   C	140.004	131.595	146.171	C.2	1	UNK0	0.219	
24	   C	139.695	129.907	147.900	C.3	1	UNK0	0.142	
25	   C	139.751	130.180	149.405	C.3	1	UNK0	0.144	
26	   C	138.635	131.979	150.612	C.2	1	UNK0	0.360	
27	   C	136.228	131.983	150.894	C.2	1	UNK0	0.208	
28	   C	135.758	131.997	149.438	C.3	1	UNK0	0.151	
29	   C	133.368	131.838	149.912	C.3	1	UNK0	0.672	
30	   C	134.611	129.728	149.260	C.3	1	UNK0	0.217	
31	   C	132.691	129.461	150.563	C.3	1	UNK0	0.150	
32	   C	135.815	130.582	148.895	C.3	1	UNK0	0.180	
33	   C	134.976	128.613	150.253	C.3	1	UNK0	0.209	
34	   C	134.989	129.591	146.987	C.3	1	UNK0	0.670	
35	   C	133.705	128.435	151.122	C.3	1	UNK0	0.093	
36	   C	134.093	134.236	142.842	C.3	1	UNK0	0.063	
37	   C	133.501	134.279	141.457	C.3	1	UNK0	0.075	
38	   C	133.758	135.196	140.495	C.3	1	UNK0	0.142	
39	   C	132.959	135.542	138.141	C.3	1	UNK0	0.154	
40	   C	133.503	134.630	137.039	C.3	1	UNK0	0.041	
41	   C	132.339	134.073	136.218	C.3	1	UNK0	0.124	
42	   C	133.724	133.454	134.311	C.2	1	UNK0	0.217	
43	   C	134.064	133.525	132.845	C.3	1	UNK0	0.103	
44	   C	135.063	134.659	132.607	C.3	1	UNK0	0.009	
45	   C	134.472	135.975	133.117	C.3	1	UNK0	0.002	
46	   C	134.283	136.938	131.943	C.3	1	UNK0	0.020	
47	   C	133.355	136.302	130.906	C.3	1	UNK0	0.129	
48	   C	131.414	137.638	131.693	C.3	1	UNK0	0.042	
49	   C	130.075	137.465	132.061	C.3	1	UNK0	-0.017	
50	   C	131.957	138.931	131.728	C.3	1	UNK0	0.030	
51	   C	129.808	135.983	131.918	C.3	1	UNK0	0.024	
52	   C	129.307	138.532	132.453	C.3	1	UNK0	0.010	
53	   C	131.136	135.436	131.438	C.3	1	UNK0	0.024	
54	   C	128.713	135.731	130.880	C.3	1	UNK0	0.027	
55	   C	129.425	135.367	133.265	C.3	1	UNK0	0.027	
56	   C	131.427	134.094	131.150	C.3	1	UNK0	0.026	
57	   C	129.855	139.805	132.478	C.3	1	UNK0	0.001	
58	   C	131.178	139.996	132.118	C.3	1	UNK0	0.002	
59	   C	130.469	133.137	131.322	C.3	1	UNK0	0.002	
60	   C	130.699	131.827	130.876	C.3	1	UNK0	0.000	
61	   C	129.741	130.870	131.048	C.3	1	UNK0	0.002	
62	   C	129.770	130.044	132.186	C.3	1	UNK0	0.026	
63	   C	130.756	129.131	132.336	C.3	1	UNK0	0.024	
64	   C	132.220	129.417	132.599	C.3	1	UNK0	0.024	
65	   C	132.856	128.049	132.680	C.3	1	UNK0	-0.017	
66	   C	132.824	130.223	131.448	C.3	1	UNK0	0.027	
67	   C	132.387	130.164	133.925	C.3	1	UNK0	0.027	
68	   C	131.842	127.122	132.472	C.3	1	UNK0	0.041	
69	   C	134.152	127.637	132.899	C.3	1	UNK0	0.010	
70	   C	132.155	125.764	132.488	C.3	1	UNK0	0.030	
71	   C	129.357	127.079	132.027	C.3	1	UNK0	0.156	
72	   C	133.453	125.354	132.709	C.3	1	UNK0	0.002	
73	   C	134.454	126.286	132.914	C.3	1	UNK0	0.001	
74	   O	137.727	134.952	145.169	O.2	1	UNK0	-0.273	
75	   O	136.414	130.860	143.830	O.2	1	UNK0	-0.273	
76	   O	141.013	131.017	145.828	O.2	1	UNK0	-0.274	
77	   O	139.725	132.364	150.987	O.co2	1	UNK0	-0.239	
78	   O	137.523	132.635	150.990	O.2	1	UNK0	-0.302	
79	   O	135.280	127.400	149.560	O.2	1	UNK0	-0.362	
80	   O	136.082	129.013	151.065	O.2	1	UNK0	-0.362	
81	   O	134.399	132.778	135.058	O.2	1	UNK0	-0.274	
82	   H	138.465	131.583	147.473	 H	1	UNK0	0.162	
83	   H	137.670	130.587	149.519	 H	1	UNK0	0.164	
84	   H	134.263	133.439	148.979	 H	1	UNK0	0.178	
85	   H	132.225	133.374	150.396	 H	1	UNK0	0.174	
86	   H	131.584	131.865	150.760	 H	1	UNK0	0.174	
87	   H	136.240	131.270	146.853	 H	1	UNK0	0.178	
88	   H	135.623	129.468	145.121	 H	1	UNK0	0.174	
89	   H	134.427	128.367	145.543	 H	1	UNK0	0.174	
90	   H	133.417	128.530	147.874	 H	1	UNK0	0.180	
91	   H	135.535	127.648	148.661	 H	1	UNK0	0.213	
92	   H	136.755	129.365	150.468	 H	1	UNK0	0.213	
93	   H	132.130	134.682	134.195	 H	1	UNK0	0.162	
@<TRIPOS>BOND
1 1 20 1
2 1 21 1
3 2 24 1
4 2 82 1
5 3 26 1
6 3 83 1
7 4 29 1
8 4 84 1
9 5 85 1
10 5 86 1
11 6 30 1
12 6 31 1
13 7 34 1
14 7 90 1
15 8 34 1
16 8 87 1
17 9 88 1
18 9 89 1
19 10 11 1
20 11 12 1
21 12 38 1
22 12 39 1
23 13 42 1
24 13 93 1
25 14 48 1
26 14 53 1
27 15 71 1
28 16 17 1
29 16 36 1
30 17 18 1
31 17 20 1
32 18 19 1
33 1 19 1
34 19 74 2
35 20 75 2
36 21 22 1
37 22 23 1
38 2 23 1
39 23 76 2
40 24 25 1
41 3 25 1
42 26 77 2
43 26 78 2
44 27 28 1
45 4 28 1
46 28 32 1
47 5 29 1
48 6 29 1
49 7 30 1
50 30 32 1
51 30 33 1
52 31 35 1
53 8 32 1
54 33 35 1
55 33 79 2
56 33 80 2
57 9 34 1
58 36 37 1
59 10 37 1
60 37 38 1
61 39 40 1
62 40 41 1
63 13 41 1
64 42 43 1
65 42 81 2
66 43 44 1
67 44 45 1
68 45 46 1
69 46 47 1
70 14 47 1
71 48 49 1
72 48 50 1
73 49 51 1
74 49 52 1
75 50 58 1
76 51 53 1
77 51 54 1
78 51 55 1
79 52 57 1
80 53 56 1
81 56 59 1
82 57 58 1
83 59 60 1
84 60 61 1
85 61 62 1
86 62 63 1
87 15 63 1
88 63 64 1
89 64 65 1
90 64 66 1
91 64 67 1
92 65 68 1
93 65 69 1
94 15 68 1
95 68 70 1
96 69 73 1
97 70 72 1
98 72 73 1
99 27 78 2
100 79 91 1
101 80 92 1
@<TRIPOS>SUBSTRUCTURE
1	UNK0	1	GROUP	1 ****	UNK
