# created with PyMOL 2.3.4
@<TRIPOS>MOLECULE
ligand_out_0001
41 43 1                 
SMALL
USER_CHARGES
@<TRIPOS>ATOM
1	   N	132.620	137.989	132.058	N.3	1	UNK0	-0.235	
2	   N	130.972	136.932	133.364	N.3	1	UNK0	-0.218	
3	   N	131.295	135.312	135.964	N.3	1	UNK0	-0.216	
4	   N	132.825	135.348	137.768	N.3	1	UNK0	-0.235	
5	   N	133.520	135.295	135.508	N.3	1	UNK0	-0.191	
6	   N	133.118	136.031	133.239	N.3	1	UNK0	-0.183	
7	   N	129.525	131.963	132.446	N.pl3	1	UNK0	-0.337	
8	   N	131.448	124.811	133.231	N.3	1	UNK0	-0.079	
9	   C	132.256	137.023	132.855	C.3	1	UNK0	0.672	
10	   C	130.451	135.609	133.692	C.3	1	UNK0	0.151	
11	   C	131.392	134.813	134.575	C.3	1	UNK0	0.180	
12	   C	132.563	135.320	136.491	C.3	1	UNK0	0.670	
13	   C	132.863	134.983	134.229	C.3	1	UNK0	0.217	
14	   C	134.466	135.749	132.713	C.3	1	UNK0	0.150	
15	   C	134.527	134.206	132.622	C.3	1	UNK0	0.093	
16	   C	133.465	133.700	133.630	C.3	1	UNK0	0.209	
17	   C	130.219	134.832	132.394	C.2	1	UNK0	0.208	
18	   C	128.742	132.955	131.978	C.2	1	UNK0	0.360	
19	   C	129.346	130.595	131.955	C.3	1	UNK0	0.125	
20	   C	129.155	129.648	133.141	C.3	1	UNK0	0.020	
21	   C	128.860	128.238	132.627	C.3	1	UNK0	0.002	
22	   C	129.903	127.849	131.577	C.3	1	UNK0	0.002	
23	   C	130.281	126.377	131.754	C.3	1	UNK0	0.027	
24	   C	131.235	126.235	132.942	C.3	1	UNK0	0.229	
25	   O	128.906	134.213	132.429	O.2	1	UNK0	-0.302	
26	   O	127.888	132.714	131.148	O.co2	1	UNK0	-0.239	
27	   O	134.080	132.911	134.649	O.2	1	UNK0	-0.362	
28	   O	132.456	132.947	132.955	O.2	1	UNK0	-0.362	
29	   H	131.982	138.674	131.803	 H	1	UNK0	0.174	
30	   H	133.529	138.025	131.723	 H	1	UNK0	0.174	
31	   H	132.099	135.364	138.411	 H	1	UNK0	0.174	
32	   H	133.745	135.351	138.074	 H	1	UNK0	0.174	
33	   H	130.432	137.728	133.498	 H	1	UNK0	0.178	
34	   H	130.483	135.584	136.419	 H	1	UNK0	0.178	
35	   H	134.469	135.453	135.636	 H	1	UNK0	0.180	
36	   H	130.207	132.156	133.109	 H	1	UNK0	0.164	
37	   H	130.600	124.413	133.604	 H	1	UNK0	0.274	
38	   H	131.700	124.329	132.381	 H	1	UNK0	0.274	
39	   H	132.191	124.713	133.906	 H	1	UNK0	0.274	
40	   H	134.457	132.135	134.212	 H	1	UNK0	0.213	
41	   H	131.741	133.563	132.744	 H	1	UNK0	0.213	
@<TRIPOS>BOND
1 1 9 1
2 1 29 1
3 1 30 1
4 2 10 1
5 2 33 1
6 3 12 1
7 3 34 1
8 4 31 1
9 4 32 1
10 5 35 1
11 6 14 1
12 7 19 1
13 7 36 1
14 8 37 1
15 8 38 1
16 8 39 1
17 2 9 1
18 6 9 1
19 10 11 1
20 10 17 1
21 3 11 1
22 11 13 1
23 4 12 1
24 5 12 1
25 5 13 1
26 6 13 1
27 13 16 1
28 14 15 1
29 15 16 1
30 16 27 2
31 16 28 2
32 17 25 2
33 7 18 1
34 18 26 2
35 19 20 1
36 20 21 1
37 21 22 1
38 22 23 1
39 23 24 1
40 8 24 1
41 18 25 2
42 27 40 1
43 28 41 1
@<TRIPOS>SUBSTRUCTURE
1	UNK0	1	GROUP	1 ****	UNK
