MODEL 1
REMARK VINA RESULT:      -7.2      0.000      0.000
REMARK  12 active torsions:
REMARK  status: ('A' for Active; 'I' for Inactive)
REMARK    1  A    between atoms: C_6  and  C_7 
REMARK    2  A    between atoms: C_7  and  O_8 
REMARK    3  A    between atoms: O_8  and  C_9 
REMARK       I    between atoms: C_9  and  N_10 
REMARK    4  A    between atoms: N_10  and  C_11 
REMARK    5  A    between atoms: C_11  and  C_12 
REMARK    6  A    between atoms: C_12  and  C_13 
REMARK    7  A    between atoms: C_13  and  C_14 
REMARK    8  A    between atoms: C_14  and  C_15 
REMARK    9  A    between atoms: C_15  and  C_16 
REMARK   10  A    between atoms: C_16  and  N_17 
REMARK   11  A    between atoms: C_33  and  O_34 
REMARK   12  A    between atoms: C_33  and  O_35 
ROOT
ATOM      1  N           0     132.620 137.989 132.058  0.00  0.00    -0.235 N 
ATOM      2  H           0     131.982 138.674 131.803  0.00  0.00     0.174 HD
ATOM      3  H           0     133.529 138.025 131.723  0.00  0.00     0.174 HD
ATOM      4  C           0     132.256 137.023 132.855  0.00  0.00     0.672 C 
ATOM      5  N           0     130.972 136.932 133.364  0.00  0.00    -0.218 N 
ATOM      6  C           0     130.451 135.609 133.692  0.00  0.00     0.151 C 
ATOM      7  C           0     131.392 134.813 134.575  0.00  0.00     0.180 C 
ATOM      8  N           0     131.295 135.312 135.964  0.00  0.00    -0.216 N 
ATOM      9  C           0     132.563 135.320 136.491  0.00  0.00     0.670 C 
ATOM     10  N           0     132.825 135.348 137.768  0.00  0.00    -0.235 N 
ATOM     11  H           0     132.099 135.364 138.411  0.00  0.00     0.174 HD
ATOM     12  H           0     133.745 135.351 138.074  0.00  0.00     0.174 HD
ATOM     13  C           0     132.863 134.983 134.229  0.00  0.00     0.217 C 
ATOM     14  N           0     133.520 135.295 135.508  0.00  0.00    -0.191 N 
ATOM     15  N           0     133.118 136.031 133.239  0.00  0.00    -0.183 N 
ATOM     16  C           0     134.466 135.749 132.713  0.00  0.00     0.150 C 
ATOM     17  C           0     134.527 134.206 132.622  0.00  0.00     0.093 C 
ATOM     18  C           0     133.465 133.700 133.630  0.00  0.00     0.209 C 
ATOM     19  H           0     130.432 137.728 133.498  0.00  0.00     0.178 HD
ATOM     20  H           0     130.483 135.584 136.419  0.00  0.00     0.178 HD
ATOM     21  H           0     134.469 135.453 135.636  0.00  0.00     0.180 HD
ENDROOT
BRANCH   6  22
ATOM     22  C           0     130.219 134.832 132.394  0.00  0.00     0.208 C 
BRANCH  22  23
ATOM     23  O           0     128.906 134.213 132.429  0.00  0.00    -0.302 OA
BRANCH  23  24
ATOM     24  C           0     128.742 132.955 131.978  0.00  0.00     0.360 C 
ATOM     25  N           0     129.525 131.963 132.446  0.00  0.00    -0.337 N 
ATOM     26  H           0     130.207 132.156 133.109  0.00  0.00     0.164 HD
ATOM     27  O           0     127.888 132.714 131.148  0.00  0.00    -0.239 OA
BRANCH  25  28
ATOM     28  C           0     129.346 130.595 131.955  0.00  0.00     0.125 C 
BRANCH  28  29
ATOM     29  C           0     129.155 129.648 133.141  0.00  0.00     0.020 C 
BRANCH  29  30
ATOM     30  C           0     128.860 128.238 132.627  0.00  0.00     0.002 C 
BRANCH  30  31
ATOM     31  C           0     129.903 127.849 131.577  0.00  0.00     0.002 C 
BRANCH  31  32
ATOM     32  C           0     130.281 126.377 131.754  0.00  0.00     0.027 C 
BRANCH  32  33
ATOM     33  C           0     131.235 126.235 132.942  0.00  0.00     0.229 C 
BRANCH  33  34
ATOM     34  N           0     131.448 124.811 133.231  0.00  0.00    -0.079 N 
ATOM     35  H           0     130.600 124.413 133.604  0.00  0.00     0.274 HD
ATOM     36  H           0     131.700 124.329 132.381  0.00  0.00     0.274 HD
ATOM     37  H           0     132.191 124.713 133.906  0.00  0.00     0.274 HD
ENDBRANCH  33  34
ENDBRANCH  32  33
ENDBRANCH  31  32
ENDBRANCH  30  31
ENDBRANCH  29  30
ENDBRANCH  28  29
ENDBRANCH  25  28
ENDBRANCH  23  24
ENDBRANCH  22  23
ENDBRANCH   6  22
BRANCH  18  38
ATOM     38  O           0     134.080 132.911 134.649  0.00  0.00    -0.362 OA
ATOM     39  H           0     134.457 132.135 134.212  0.00  0.00     0.213 HD
ENDBRANCH  18  38
BRANCH  18  40
ATOM     40  O           0     132.456 132.947 132.955  0.00  0.00    -0.362 OA
ATOM     41  H           0     131.741 133.563 132.744  0.00  0.00     0.213 HD
ENDBRANCH  18  40
TORSDOF 12
ENDMDL
MODEL 2
REMARK VINA RESULT:      -7.1     10.426     13.800
REMARK  12 active torsions:
REMARK  status: ('A' for Active; 'I' for Inactive)
REMARK    1  A    between atoms: C_6  and  C_7 
REMARK    2  A    between atoms: C_7  and  O_8 
REMARK    3  A    between atoms: O_8  and  C_9 
REMARK       I    between atoms: C_9  and  N_10 
REMARK    4  A    between atoms: N_10  and  C_11 
REMARK    5  A    between atoms: C_11  and  C_12 
REMARK    6  A    between atoms: C_12  and  C_13 
REMARK    7  A    between atoms: C_13  and  C_14 
REMARK    8  A    between atoms: C_14  and  C_15 
REMARK    9  A    between atoms: C_15  and  C_16 
REMARK   10  A    between atoms: C_16  and  N_17 
REMARK   11  A    between atoms: C_33  and  O_34 
REMARK   12  A    between atoms: C_33  and  O_35 
ROOT
ATOM      1  N           0     134.714 131.994 146.648  0.00  0.00    -0.235 N 
ATOM      2  H           0     134.904 132.103 147.593  0.00  0.00     0.174 HD
ATOM      3  H           0     134.088 131.314 146.355  0.00  0.00     0.174 HD
ATOM      4  C           0     135.295 132.767 145.774  0.00  0.00     0.672 C 
ATOM      5  N           0     136.189 133.756 146.143  0.00  0.00    -0.218 N 
ATOM      6  C           0     137.230 134.136 145.193  0.00  0.00     0.151 C 
ATOM      7  C           0     136.679 134.455 143.817  0.00  0.00     0.180 C 
ATOM      8  N           0     136.062 135.798 143.840  0.00  0.00    -0.216 N 
ATOM      9  C           0     134.916 135.741 143.086  0.00  0.00     0.670 C 
ATOM     10  N           0     134.316 136.785 142.585  0.00  0.00    -0.235 N 
ATOM     11  H           0     134.678 137.672 142.739  0.00  0.00     0.174 HD
ATOM     12  H           0     133.509 136.674 142.060  0.00  0.00     0.174 HD
ATOM     13  C           0     135.547 133.541 143.375  0.00  0.00     0.217 C 
ATOM     14  N           0     134.481 134.450 142.922  0.00  0.00    -0.191 N 
ATOM     15  N           0     135.062 132.649 144.429  0.00  0.00    -0.183 N 
ATOM     16  C           0     134.330 131.579 143.727  0.00  0.00     0.150 C 
ATOM     17  C           0     135.168 131.313 142.453  0.00  0.00     0.093 C 
ATOM     18  C           0     135.971 132.618 142.220  0.00  0.00     0.209 C 
ATOM     19  H           0     136.126 134.185 147.011  0.00  0.00     0.178 HD
ATOM     20  H           0     136.405 136.578 144.304  0.00  0.00     0.178 HD
ATOM     21  H           0     133.619 134.182 142.566  0.00  0.00     0.180 HD
ENDROOT
BRANCH   6  22
ATOM     22  C           0     138.230 132.984 145.067  0.00  0.00     0.208 C 
BRANCH  22  23
ATOM     23  O           0     138.762 132.660 146.379  0.00  0.00    -0.302 OA
BRANCH  23  24
ATOM     24  C           0     138.823 131.378 146.783  0.00  0.00     0.360 C 
ATOM     25  N           0     137.878 130.884 147.607  0.00  0.00    -0.337 N 
ATOM     26  H           0     137.152 131.453 147.907  0.00  0.00     0.164 HD
ATOM     27  O           0     139.733 130.665 146.406  0.00  0.00    -0.239 OA
BRANCH  25  28
ATOM     28  C           0     137.945 129.489 148.047  0.00  0.00     0.125 C 
BRANCH  28  29
ATOM     29  C           0     136.594 128.812 147.804  0.00  0.00     0.020 C 
BRANCH  29  30
ATOM     30  C           0     135.699 129.004 149.029  0.00  0.00     0.002 C 
BRANCH  30  31
ATOM     31  C           0     134.232 129.002 148.595  0.00  0.00     0.002 C 
BRANCH  31  32
ATOM     32  C           0     134.077 128.161 147.326  0.00  0.00     0.027 C 
BRANCH  32  33
ATOM     33  C           0     132.671 127.560 147.281  0.00  0.00     0.229 C 
BRANCH  33  34
ATOM     34  N           0     131.776 128.343 148.144  0.00  0.00    -0.079 N 
ATOM     35  H           0     131.019 128.718 147.592  0.00  0.00     0.274 HD
ATOM     36  H           0     131.401 127.749 148.868  0.00  0.00     0.274 HD
ATOM     37  H           0     132.293 129.100 148.564  0.00  0.00     0.274 HD
ENDBRANCH  33  34
ENDBRANCH  32  33
ENDBRANCH  31  32
ENDBRANCH  30  31
ENDBRANCH  29  30
ENDBRANCH  28  29
ENDBRANCH  25  28
ENDBRANCH  23  24
ENDBRANCH  22  23
ENDBRANCH   6  22
BRANCH  18  38
ATOM     38  O           0     135.628 133.196 140.960  0.00  0.00    -0.362 OA
ATOM     39  H           0     135.917 132.574 140.279  0.00  0.00     0.213 HD
ENDBRANCH  18  38
BRANCH  18  40
ATOM     40  O           0     137.375 132.356 142.285  0.00  0.00    -0.362 OA
ATOM     41  H           0     137.512 131.476 141.906  0.00  0.00     0.213 HD
ENDBRANCH  18  40
TORSDOF 12
ENDMDL
MODEL 3
REMARK VINA RESULT:      -7.0      6.588      9.599
REMARK  12 active torsions:
REMARK  status: ('A' for Active; 'I' for Inactive)
REMARK    1  A    between atoms: C_6  and  C_7 
REMARK    2  A    between atoms: C_7  and  O_8 
REMARK    3  A    between atoms: O_8  and  C_9 
REMARK       I    between atoms: C_9  and  N_10 
REMARK    4  A    between atoms: N_10  and  C_11 
REMARK    5  A    between atoms: C_11  and  C_12 
REMARK    6  A    between atoms: C_12  and  C_13 
REMARK    7  A    between atoms: C_13  and  C_14 
REMARK    8  A    between atoms: C_14  and  C_15 
REMARK    9  A    between atoms: C_15  and  C_16 
REMARK   10  A    between atoms: C_16  and  N_17 
REMARK   11  A    between atoms: C_33  and  O_34 
REMARK   12  A    between atoms: C_33  and  O_35 
ROOT
ATOM      1  N           0     134.964 136.769 143.276  0.00  0.00    -0.235 N 
ATOM      2  H           0     134.166 137.277 143.057  0.00  0.00     0.174 HD
ATOM      3  H           0     135.802 137.229 143.438  0.00  0.00     0.174 HD
ATOM      4  C           0     134.906 135.469 143.358  0.00  0.00     0.672 C 
ATOM      5  N           0     133.732 134.769 143.142  0.00  0.00    -0.218 N 
ATOM      6  C           0     133.826 133.402 142.637  0.00  0.00     0.151 C 
ATOM      7  C           0     134.774 132.542 143.450  0.00  0.00     0.180 C 
ATOM      8  N           0     134.110 132.144 144.710  0.00  0.00    -0.216 N 
ATOM      9  C           0     135.050 132.203 145.710  0.00  0.00     0.670 C 
ATOM     10  N           0     134.939 131.592 146.856  0.00  0.00    -0.235 N 
ATOM     11  H           0     134.154 131.053 147.044  0.00  0.00     0.174 HD
ATOM     12  H           0     135.641 131.676 147.520  0.00  0.00     0.174 HD
ATOM     13  C           0     136.028 133.267 143.912  0.00  0.00     0.217 C 
ATOM     14  N           0     136.120 132.985 145.353  0.00  0.00    -0.191 N 
ATOM     15  N           0     136.004 134.708 143.660  0.00  0.00    -0.183 N 
ATOM     16  C           0     137.411 135.142 143.743  0.00  0.00     0.150 C 
ATOM     17  C           0     138.206 133.991 143.081  0.00  0.00     0.093 C 
ATOM     18  C           0     137.288 132.748 143.197  0.00  0.00     0.209 C 
ATOM     19  H           0     132.869 135.176 143.321  0.00  0.00     0.178 HD
ATOM     20  H           0     133.180 131.887 144.811  0.00  0.00     0.178 HD
ATOM     21  H           0     136.819 133.297 145.951  0.00  0.00     0.180 HD
ENDROOT
BRANCH   6  22
ATOM     22  C           0     134.317 133.442 141.189  0.00  0.00     0.208 C 
BRANCH  22  23
ATOM     23  O           0     133.830 134.649 140.546  0.00  0.00    -0.302 OA
BRANCH  23  24
ATOM     24  C           0     133.420 134.611 139.264  0.00  0.00     0.360 C 
ATOM     25  N           0     134.059 135.342 138.330  0.00  0.00    -0.337 N 
ATOM     26  H           0     134.815 135.896 138.581  0.00  0.00     0.164 HD
ATOM     27  O           0     132.473 133.917 138.949  0.00  0.00    -0.239 OA
BRANCH  25  28
ATOM     28  C           0     133.613 135.301 136.935  0.00  0.00     0.125 C 
BRANCH  28  29
ATOM     29  C           0     134.831 135.223 136.012  0.00  0.00     0.020 C 
BRANCH  29  30
ATOM     30  C           0     134.364 135.125 134.558  0.00  0.00     0.002 C 
BRANCH  30  31
ATOM     31  C           0     133.672 133.779 134.335  0.00  0.00     0.002 C 
BRANCH  31  32
ATOM     32  C           0     134.720 132.718 133.990  0.00  0.00     0.027 C 
BRANCH  32  33
ATOM     33  C           0     134.041 131.352 133.866  0.00  0.00     0.229 C 
BRANCH  33  34
ATOM     34  N           0     135.057 130.293 133.925  0.00  0.00    -0.079 N 
ATOM     35  H           0     135.976 130.708 133.910  0.00  0.00     0.274 HD
ATOM     36  H           0     134.941 129.764 134.776  0.00  0.00     0.274 HD
ATOM     37  H           0     134.950 129.681 133.131  0.00  0.00     0.274 HD
ENDBRANCH  33  34
ENDBRANCH  32  33
ENDBRANCH  31  32
ENDBRANCH  30  31
ENDBRANCH  29  30
ENDBRANCH  28  29
ENDBRANCH  25  28
ENDBRANCH  23  24
ENDBRANCH  22  23
ENDBRANCH   6  22
BRANCH  18  38
ATOM     38  O           0     137.923 131.730 143.972  0.00  0.00    -0.362 OA
ATOM     39  H           0     137.794 131.965 144.901  0.00  0.00     0.213 HD
ENDBRANCH  18  38
BRANCH  18  40
ATOM     40  O           0     136.954 132.253 141.899  0.00  0.00    -0.362 OA
ATOM     41  H           0     137.743 131.811 141.557  0.00  0.00     0.213 HD
ENDBRANCH  18  40
TORSDOF 12
ENDMDL
MODEL 4
REMARK VINA RESULT:      -7.0      3.318      7.753
REMARK  12 active torsions:
REMARK  status: ('A' for Active; 'I' for Inactive)
REMARK    1  A    between atoms: C_6  and  C_7 
REMARK    2  A    between atoms: C_7  and  O_8 
REMARK    3  A    between atoms: O_8  and  C_9 
REMARK       I    between atoms: C_9  and  N_10 
REMARK    4  A    between atoms: N_10  and  C_11 
REMARK    5  A    between atoms: C_11  and  C_12 
REMARK    6  A    between atoms: C_12  and  C_13 
REMARK    7  A    between atoms: C_13  and  C_14 
REMARK    8  A    between atoms: C_14  and  C_15 
REMARK    9  A    between atoms: C_15  and  C_16 
REMARK   10  A    between atoms: C_16  and  N_17 
REMARK   11  A    between atoms: C_33  and  O_34 
REMARK   12  A    between atoms: C_33  and  O_35 
ROOT
ATOM      1  N           0     133.890 134.217 132.137  0.00  0.00    -0.235 N 
ATOM      2  H           0     134.784 134.251 132.512  0.00  0.00     0.174 HD
ATOM      3  H           0     133.738 134.489 131.219  0.00  0.00     0.174 HD
ATOM      4  C           0     132.894 133.799 132.867  0.00  0.00     0.672 C 
ATOM      5  N           0     133.061 133.393 134.179  0.00  0.00    -0.218 N 
ATOM      6  C           0     131.935 133.540 135.097  0.00  0.00     0.151 C 
ATOM      7  C           0     130.654 132.940 134.552  0.00  0.00     0.180 C 
ATOM      8  N           0     130.710 131.469 134.689  0.00  0.00    -0.216 N 
ATOM      9  C           0     130.157 130.926 133.555  0.00  0.00     0.670 C 
ATOM     10  N           0     129.710 129.704 133.471  0.00  0.00    -0.235 N 
ATOM     11  H           0     129.757 129.116 134.242  0.00  0.00     0.174 HD
ATOM     12  H           0     129.330 129.383 132.639  0.00  0.00     0.174 HD
ATOM     13  C           0     130.450 133.160 133.061  0.00  0.00     0.217 C 
ATOM     14  N           0     130.133 131.828 132.521  0.00  0.00    -0.191 N 
ATOM     15  N           0     131.613 133.736 132.385  0.00  0.00    -0.183 N 
ATOM     16  C           0     131.096 134.280 131.116  0.00  0.00     0.150 C 
ATOM     17  C           0     129.717 134.876 131.488  0.00  0.00     0.093 C 
ATOM     18  C           0     129.290 134.129 132.777  0.00  0.00     0.209 C 
ATOM     19  H           0     133.905 133.021 134.482  0.00  0.00     0.178 HD
ATOM     20  H           0     131.071 130.977 135.443  0.00  0.00     0.178 HD
ATOM     21  H           0     129.937 131.623 131.593  0.00  0.00     0.180 HD
ENDROOT
BRANCH   6  22
ATOM     22  C           0     131.705 135.030 135.364  0.00  0.00     0.208 C 
BRANCH  22  23
ATOM     23  O           0     132.939 135.632 135.838  0.00  0.00    -0.302 OA
BRANCH  23  24
ATOM     24  C           0     133.450 135.271 137.030  0.00  0.00     0.360 C 
ATOM     25  N           0     132.692 135.350 138.141  0.00  0.00    -0.337 N 
ATOM     26  H           0     131.777 135.666 138.082  0.00  0.00     0.164 HD
ATOM     27  O           0     134.597 134.875 137.104  0.00  0.00    -0.239 OA
BRANCH  25  28
ATOM     28  C           0     133.249 134.958 139.438  0.00  0.00     0.125 C 
BRANCH  28  29
ATOM     29  C           0     132.410 133.824 140.031  0.00  0.00     0.020 C 
BRANCH  29  30
ATOM     30  C           0     133.056 133.337 141.329  0.00  0.00     0.002 C 
BRANCH  30  31
ATOM     31  C           0     133.915 134.455 141.923  0.00  0.00     0.002 C 
BRANCH  31  32
ATOM     32  C           0     134.670 133.925 143.144  0.00  0.00     0.027 C 
BRANCH  32  33
ATOM     33  C           0     135.637 134.997 143.650  0.00  0.00     0.229 C 
BRANCH  33  34
ATOM     34  N           0     135.143 136.325 143.264  0.00  0.00    -0.079 N 
ATOM     35  H           0     134.498 136.233 142.493  0.00  0.00     0.274 HD
ATOM     36  H           0     134.670 136.749 144.048  0.00  0.00     0.274 HD
ATOM     37  H           0     135.920 136.905 142.985  0.00  0.00     0.274 HD
ENDBRANCH  33  34
ENDBRANCH  32  33
ENDBRANCH  31  32
ENDBRANCH  30  31
ENDBRANCH  29  30
ENDBRANCH  28  29
ENDBRANCH  25  28
ENDBRANCH  23  24
ENDBRANCH  22  23
ENDBRANCH   6  22
BRANCH  18  38
ATOM     38  O           0     128.076 133.410 132.556  0.00  0.00    -0.362 OA
ATOM     39  H           0     128.305 132.471 132.550  0.00  0.00     0.213 HD
ENDBRANCH  18  38
BRANCH  18  40
ATOM     40  O           0     129.136 135.051 133.858  0.00  0.00    -0.362 OA
ATOM     41  H           0     129.594 135.863 133.600  0.00  0.00     0.213 HD
ENDBRANCH  18  40
TORSDOF 12
ENDMDL
MODEL 5
REMARK VINA RESULT:      -7.0      2.149      3.306
REMARK  12 active torsions:
REMARK  status: ('A' for Active; 'I' for Inactive)
REMARK    1  A    between atoms: C_6  and  C_7 
REMARK    2  A    between atoms: C_7  and  O_8 
REMARK    3  A    between atoms: O_8  and  C_9 
REMARK       I    between atoms: C_9  and  N_10 
REMARK    4  A    between atoms: N_10  and  C_11 
REMARK    5  A    between atoms: C_11  and  C_12 
REMARK    6  A    between atoms: C_12  and  C_13 
REMARK    7  A    between atoms: C_13  and  C_14 
REMARK    8  A    between atoms: C_14  and  C_15 
REMARK    9  A    between atoms: C_15  and  C_16 
REMARK   10  A    between atoms: C_16  and  N_17 
REMARK   11  A    between atoms: C_33  and  O_34 
REMARK   12  A    between atoms: C_33  and  O_35 
ROOT
ATOM      1  N           0     134.890 133.297 132.643  0.00  0.00    -0.235 N 
ATOM      2  H           0     134.983 132.617 131.958  0.00  0.00     0.174 HD
ATOM      3  H           0     135.677 133.733 133.004  0.00  0.00     0.174 HD
ATOM      4  C           0     133.705 133.629 133.074  0.00  0.00     0.672 C 
ATOM      5  N           0     132.552 133.040 132.586  0.00  0.00    -0.218 N 
ATOM      6  C           0     131.390 132.961 133.466  0.00  0.00     0.151 C 
ATOM      7  C           0     131.038 134.296 134.092  0.00  0.00     0.180 C 
ATOM      8  N           0     130.352 135.138 133.089  0.00  0.00    -0.216 N 
ATOM      9  C           0     130.810 136.423 133.244  0.00  0.00     0.670 C 
ATOM     10  N           0     130.189 137.480 132.800  0.00  0.00    -0.235 N 
ATOM     11  H           0     129.348 137.385 132.326  0.00  0.00     0.174 HD
ATOM     12  H           0     130.568 138.361 132.945  0.00  0.00     0.174 HD
ATOM     13  C           0     132.244 135.127 134.502  0.00  0.00     0.217 C 
ATOM     14  N           0     132.002 136.458 133.924  0.00  0.00    -0.191 N 
ATOM     15  N           0     133.521 134.580 134.043  0.00  0.00    -0.183 N 
ATOM     16  C           0     134.546 135.226 134.883  0.00  0.00     0.150 C 
ATOM     17  C           0     133.900 135.300 136.287  0.00  0.00     0.093 C 
ATOM     18  C           0     132.373 135.237 136.031  0.00  0.00     0.209 C 
ATOM     19  H           0     132.517 132.689 131.681  0.00  0.00     0.178 HD
ATOM     20  H           0     129.698 134.837 132.439  0.00  0.00     0.178 HD
ATOM     21  H           0     132.584 137.230 134.010  0.00  0.00     0.180 HD
ENDROOT
BRANCH   6  22
ATOM     22  C           0     131.683 131.956 134.582  0.00  0.00     0.208 C 
BRANCH  22  23
ATOM     23  O           0     131.911 130.644 134.004  0.00  0.00    -0.302 OA
BRANCH  23  24
ATOM     24  C           0     131.113 130.194 133.017  0.00  0.00     0.360 C 
ATOM     25  N           0     129.865 129.771 133.298  0.00  0.00    -0.337 N 
ATOM     26  H           0     129.541 129.792 134.213  0.00  0.00     0.164 HD
ATOM     27  O           0     131.520 130.169 131.872  0.00  0.00    -0.239 OA
BRANCH  25  28
ATOM     28  C           0     128.997 129.283 132.224  0.00  0.00     0.125 C 
BRANCH  28  29
ATOM     29  C           0     128.736 127.788 132.419  0.00  0.00     0.020 C 
BRANCH  29  30
ATOM     30  C           0     129.809 126.982 131.684  0.00  0.00     0.002 C 
BRANCH  30  31
ATOM     31  C           0     130.770 126.365 132.702  0.00  0.00     0.002 C 
BRANCH  31  32
ATOM     32  C           0     132.213 126.632 132.266  0.00  0.00     0.027 C 
BRANCH  32  33
ATOM     33  C           0     133.112 125.497 132.762  0.00  0.00     0.229 C 
BRANCH  33  34
ATOM     34  N           0     132.295 124.486 133.443  0.00  0.00    -0.079 N 
ATOM     35  H           0     131.318 124.721 133.347  0.00  0.00     0.274 HD
ATOM     36  H           0     132.465 123.581 133.030  0.00  0.00     0.274 HD
ATOM     37  H           0     132.539 124.460 134.422  0.00  0.00     0.274 HD
ENDBRANCH  33  34
ENDBRANCH  32  33
ENDBRANCH  31  32
ENDBRANCH  30  31
ENDBRANCH  29  30
ENDBRANCH  28  29
ENDBRANCH  25  28
ENDBRANCH  23  24
ENDBRANCH  22  23
ENDBRANCH   6  22
BRANCH  18  38
ATOM     38  O           0     131.739 136.426 136.505  0.00  0.00    -0.362 OA
ATOM     39  H           0     131.584 136.986 135.733  0.00  0.00     0.213 HD
ENDBRANCH  18  38
BRANCH  18  40
ATOM     40  O           0     131.809 134.084 136.661  0.00  0.00    -0.362 OA
ATOM     41  H           0     132.118 133.315 136.163  0.00  0.00     0.213 HD
ENDBRANCH  18  40
TORSDOF 12
ENDMDL
MODEL 6
REMARK VINA RESULT:      -6.9      2.485      3.957
REMARK  12 active torsions:
REMARK  status: ('A' for Active; 'I' for Inactive)
REMARK    1  A    between atoms: C_6  and  C_7 
REMARK    2  A    between atoms: C_7  and  O_8 
REMARK    3  A    between atoms: O_8  and  C_9 
REMARK       I    between atoms: C_9  and  N_10 
REMARK    4  A    between atoms: N_10  and  C_11 
REMARK    5  A    between atoms: C_11  and  C_12 
REMARK    6  A    between atoms: C_12  and  C_13 
REMARK    7  A    between atoms: C_13  and  C_14 
REMARK    8  A    between atoms: C_14  and  C_15 
REMARK    9  A    between atoms: C_15  and  C_16 
REMARK   10  A    between atoms: C_16  and  N_17 
REMARK   11  A    between atoms: C_33  and  O_34 
REMARK   12  A    between atoms: C_33  and  O_35 
ROOT
ATOM      1  N           0     134.232 133.366 132.181  0.00  0.00    -0.235 N 
ATOM      2  H           0     134.202 132.714 131.463  0.00  0.00     0.174 HD
ATOM      3  H           0     135.082 133.733 132.467  0.00  0.00     0.174 HD
ATOM      4  C           0     133.127 133.751 132.757  0.00  0.00     0.672 C 
ATOM      5  N           0     131.889 133.261 132.379  0.00  0.00    -0.218 N 
ATOM      6  C           0     130.830 133.214 133.383  0.00  0.00     0.151 C 
ATOM      7  C           0     130.642 134.537 134.098  0.00  0.00     0.180 C 
ATOM      8  N           0     129.908 135.468 133.214  0.00  0.00    -0.216 N 
ATOM      9  C           0     130.468 136.713 133.367  0.00  0.00     0.670 C 
ATOM     10  N           0     129.875 137.827 133.041  0.00  0.00    -0.235 N 
ATOM     11  H           0     128.982 137.808 132.662  0.00  0.00     0.174 HD
ATOM     12  H           0     130.327 138.674 133.176  0.00  0.00     0.174 HD
ATOM     13  C           0     131.940 135.269 134.401  0.00  0.00     0.217 C 
ATOM     14  N           0     131.727 136.639 133.909  0.00  0.00    -0.191 N 
ATOM     15  N           0     133.118 134.665 133.778  0.00  0.00    -0.183 N 
ATOM     16  C           0     134.271 135.203 134.522  0.00  0.00     0.150 C 
ATOM     17  C           0     133.791 135.250 135.992  0.00  0.00     0.093 C 
ATOM     18  C           0     132.245 135.297 135.909  0.00  0.00     0.209 C 
ATOM     19  H           0     131.730 132.957 131.471  0.00  0.00     0.178 HD
ATOM     20  H           0     129.167 135.240 132.632  0.00  0.00     0.178 HD
ATOM     21  H           0     132.366 137.367 133.959  0.00  0.00     0.180 HD
ENDROOT
BRANCH   6  22
ATOM     22  C           0     131.175 132.140 134.417  0.00  0.00     0.208 C 
BRANCH  22  23
ATOM     23  O           0     131.501 130.899 133.736  0.00  0.00    -0.302 OA
BRANCH  23  24
ATOM     24  C           0     132.719 130.347 133.888  0.00  0.00     0.360 C 
ATOM     25  N           0     133.262 129.625 132.888  0.00  0.00    -0.337 N 
ATOM     26  H           0     132.775 129.504 132.058  0.00  0.00     0.164 HD
ATOM     27  O           0     133.330 130.500 134.928  0.00  0.00    -0.239 OA
BRANCH  25  28
ATOM     28  C           0     134.588 129.025 133.054  0.00  0.00     0.125 C 
BRANCH  28  29
ATOM     29  C           0     134.734 127.838 132.099  0.00  0.00     0.020 C 
BRANCH  29  30
ATOM     30  C           0     133.401 127.096 132.000  0.00  0.00     0.002 C 
BRANCH  30  31
ATOM     31  C           0     133.533 125.719 132.655  0.00  0.00     0.002 C 
BRANCH  31  32
ATOM     32  C           0     132.170 125.277 133.192  0.00  0.00     0.027 C 
BRANCH  32  33
ATOM     33  C           0     131.095 126.262 132.725  0.00  0.00     0.229 C 
BRANCH  33  34
ATOM     34  N           0     129.875 125.524 132.375  0.00  0.00    -0.079 N 
ATOM     35  H           0     129.079 126.142 132.436  0.00  0.00     0.274 HD
ATOM     36  H           0     129.954 125.171 131.433  0.00  0.00     0.274 HD
ATOM     37  H           0     129.752 124.754 133.014  0.00  0.00     0.274 HD
ENDBRANCH  33  34
ENDBRANCH  32  33
ENDBRANCH  31  32
ENDBRANCH  30  31
ENDBRANCH  29  30
ENDBRANCH  28  29
ENDBRANCH  25  28
ENDBRANCH  23  24
ENDBRANCH  22  23
ENDBRANCH   6  22
BRANCH  18  38
ATOM     38  O           0     131.750 136.500 136.500  0.00  0.00    -0.362 OA
ATOM     39  H           0     131.282 136.981 135.804  0.00  0.00     0.213 HD
ENDBRANCH  18  38
BRANCH  18  40
ATOM     40  O           0     131.677 134.154 136.552  0.00  0.00    -0.362 OA
ATOM     41  H           0     131.138 134.485 137.284  0.00  0.00     0.213 HD
ENDBRANCH  18  40
TORSDOF 12
ENDMDL
MODEL 7
REMARK VINA RESULT:      -6.9     11.000     14.563
REMARK  12 active torsions:
REMARK  status: ('A' for Active; 'I' for Inactive)
REMARK    1  A    between atoms: C_6  and  C_7 
REMARK    2  A    between atoms: C_7  and  O_8 
REMARK    3  A    between atoms: O_8  and  C_9 
REMARK       I    between atoms: C_9  and  N_10 
REMARK    4  A    between atoms: N_10  and  C_11 
REMARK    5  A    between atoms: C_11  and  C_12 
REMARK    6  A    between atoms: C_12  and  C_13 
REMARK    7  A    between atoms: C_13  and  C_14 
REMARK    8  A    between atoms: C_14  and  C_15 
REMARK    9  A    between atoms: C_15  and  C_16 
REMARK   10  A    between atoms: C_16  and  N_17 
REMARK   11  A    between atoms: C_33  and  O_34 
REMARK   12  A    between atoms: C_33  and  O_35 
ROOT
ATOM      1  N           0     136.017 133.476 149.192  0.00  0.00    -0.235 N 
ATOM      2  H           0     135.132 133.679 149.535  0.00  0.00     0.174 HD
ATOM      3  H           0     136.745 134.100 149.331  0.00  0.00     0.174 HD
ATOM      4  C           0     136.226 132.362 148.549  0.00  0.00     0.672 C 
ATOM      5  N           0     135.220 131.437 148.331  0.00  0.00    -0.218 N 
ATOM      6  C           0     135.310 130.583 147.151  0.00  0.00     0.151 C 
ATOM      7  C           0     136.653 129.892 147.030  0.00  0.00     0.180 C 
ATOM      8  N           0     136.706 128.761 147.981  0.00  0.00    -0.216 N 
ATOM      9  C           0     137.969 128.732 148.520  0.00  0.00     0.670 C 
ATOM     10  N           0     138.492 127.690 149.104  0.00  0.00    -0.235 N 
ATOM     11  H           0     137.980 126.868 149.178  0.00  0.00     0.174 HD
ATOM     12  H           0     139.391 127.736 149.463  0.00  0.00     0.174 HD
ATOM     13  C           0     137.837 130.760 147.428  0.00  0.00     0.217 C 
ATOM     14  N           0     138.613 129.934 148.367  0.00  0.00    -0.191 N 
ATOM     15  N           0     137.455 132.032 148.042  0.00  0.00    -0.183 N 
ATOM     16  C           0     138.651 132.888 147.939  0.00  0.00     0.150 C 
ATOM     17  C           0     139.248 132.548 146.553  0.00  0.00     0.093 C 
ATOM     18  C           0     138.709 131.134 146.218  0.00  0.00     0.209 C 
ATOM     19  H           0     134.474 131.358 148.948  0.00  0.00     0.178 HD
ATOM     20  H           0     135.980 128.151 148.187  0.00  0.00     0.178 HD
ATOM     21  H           0     139.440 130.194 148.803  0.00  0.00     0.180 HD
ENDROOT
BRANCH   6  22
ATOM     22  C           0     135.082 131.439 145.902  0.00  0.00     0.208 C 
BRANCH  22  23
ATOM     23  O           0     134.937 130.576 144.744  0.00  0.00    -0.302 OA
BRANCH  23  24
ATOM     24  C           0     134.677 131.109 143.535  0.00  0.00     0.360 C 
ATOM     25  N           0     133.959 132.245 143.439  0.00  0.00    -0.337 N 
ATOM     26  H           0     133.631 132.680 144.241  0.00  0.00     0.164 HD
ATOM     27  O           0     135.090 130.564 142.530  0.00  0.00    -0.239 OA
BRANCH  25  28
ATOM     28  C           0     133.677 132.825 142.124  0.00  0.00     0.125 C 
BRANCH  28  29
ATOM     29  C           0     134.140 134.283 142.098  0.00  0.00     0.020 C 
BRANCH  29  30
ATOM     30  C           0     134.409 134.758 143.527  0.00  0.00     0.002 C 
BRANCH  30  31
ATOM     31  C           0     135.762 135.470 143.582  0.00  0.00     0.002 C 
BRANCH  31  32
ATOM     32  C           0     136.819 134.512 144.136  0.00  0.00     0.027 C 
BRANCH  32  33
ATOM     33  C           0     137.832 134.180 143.038  0.00  0.00     0.229 C 
BRANCH  33  34
ATOM     34  N           0     137.510 132.872 142.454  0.00  0.00    -0.079 N 
ATOM     35  H           0     137.519 132.942 141.447  0.00  0.00     0.274 HD
ATOM     36  H           0     138.196 132.193 142.750  0.00  0.00     0.274 HD
ATOM     37  H           0     136.595 132.582 142.763  0.00  0.00     0.274 HD
ENDBRANCH  33  34
ENDBRANCH  32  33
ENDBRANCH  31  32
ENDBRANCH  30  31
ENDBRANCH  29  30
ENDBRANCH  28  29
ENDBRANCH  25  28
ENDBRANCH  23  24
ENDBRANCH  22  23
ENDBRANCH   6  22
BRANCH  18  38
ATOM     38  O           0     139.789 130.211 146.070  0.00  0.00    -0.362 OA
ATOM     39  H           0     139.399 129.326 146.056  0.00  0.00     0.213 HD
ENDBRANCH  18  38
BRANCH  18  40
ATOM     40  O           0     137.917 131.172 145.028  0.00  0.00    -0.362 OA
ATOM     41  H           0     138.330 131.818 144.438  0.00  0.00     0.213 HD
ENDBRANCH  18  40
TORSDOF 12
ENDMDL
MODEL 8
REMARK VINA RESULT:      -6.8      3.861      7.760
REMARK  12 active torsions:
REMARK  status: ('A' for Active; 'I' for Inactive)
REMARK    1  A    between atoms: C_6  and  C_7 
REMARK    2  A    between atoms: C_7  and  O_8 
REMARK    3  A    between atoms: O_8  and  C_9 
REMARK       I    between atoms: C_9  and  N_10 
REMARK    4  A    between atoms: N_10  and  C_11 
REMARK    5  A    between atoms: C_11  and  C_12 
REMARK    6  A    between atoms: C_12  and  C_13 
REMARK    7  A    between atoms: C_13  and  C_14 
REMARK    8  A    between atoms: C_14  and  C_15 
REMARK    9  A    between atoms: C_15  and  C_16 
REMARK   10  A    between atoms: C_16  and  N_17 
REMARK   11  A    between atoms: C_33  and  O_34 
REMARK   12  A    between atoms: C_33  and  O_35 
ROOT
ATOM      1  N           0     134.554 134.167 131.839  0.00  0.00    -0.235 N 
ATOM      2  H           0     135.208 133.488 132.068  0.00  0.00     0.174 HD
ATOM      3  H           0     134.707 134.752 131.081  0.00  0.00     0.174 HD
ATOM      4  C           0     133.466 134.289 132.547  0.00  0.00     0.672 C 
ATOM      5  N           0     133.199 133.474 133.634  0.00  0.00    -0.218 N 
ATOM      6  C           0     132.370 134.007 134.710  0.00  0.00     0.151 C 
ATOM      7  C           0     131.070 134.603 134.207  0.00  0.00     0.180 C 
ATOM      8  N           0     130.129 133.512 133.879  0.00  0.00    -0.216 N 
ATOM      9  C           0     129.465 133.866 132.730  0.00  0.00     0.670 C 
ATOM     10  N           0     128.334 133.344 132.347  0.00  0.00    -0.235 N 
ATOM     11  H           0     127.909 132.659 132.886  0.00  0.00     0.174 HD
ATOM     12  H           0     127.918 133.642 131.523  0.00  0.00     0.174 HD
ATOM     13  C           0     131.204 135.373 132.902  0.00  0.00     0.217 C 
ATOM     14  N           0     130.140 134.840 132.036  0.00  0.00    -0.191 N 
ATOM     15  N           0     132.515 135.234 132.267  0.00  0.00    -0.183 N 
ATOM     16  C           0     132.608 136.357 131.316  0.00  0.00     0.150 C 
ATOM     17  C           0     131.938 137.541 132.054  0.00  0.00     0.093 C 
ATOM     18  C           0     131.005 136.885 133.103  0.00  0.00     0.209 C 
ATOM     19  H           0     133.555 132.572 133.678  0.00  0.00     0.178 HD
ATOM     20  H           0     130.002 132.693 134.385  0.00  0.00     0.178 HD
ATOM     21  H           0     129.947 135.127 131.130  0.00  0.00     0.180 HD
ENDROOT
BRANCH   6  22
ATOM     22  C           0     133.156 135.093 135.449  0.00  0.00     0.208 C 
BRANCH  22  23
ATOM     23  O           0     132.554 135.325 136.750  0.00  0.00    -0.302 OA
BRANCH  23  24
ATOM     24  C           0     133.222 134.992 137.870  0.00  0.00     0.360 C 
ATOM     25  N           0     132.544 134.695 138.996  0.00  0.00    -0.337 N 
ATOM     26  H           0     131.574 134.718 138.999  0.00  0.00     0.164 HD
ATOM     27  O           0     134.437 134.962 137.866  0.00  0.00    -0.239 OA
BRANCH  25  28
ATOM     28  C           0     133.271 134.332 140.215  0.00  0.00     0.125 C 
BRANCH  28  29
ATOM     29  C           0     132.547 133.184 140.920  0.00  0.00     0.020 C 
BRANCH  29  30
ATOM     30  C           0     133.490 132.528 141.929  0.00  0.00     0.002 C 
BRANCH  30  31
ATOM     31  C           0     134.750 133.383 142.080  0.00  0.00     0.002 C 
BRANCH  31  32
ATOM     32  C           0     134.817 133.946 143.501  0.00  0.00     0.027 C 
BRANCH  32  33
ATOM     33  C           0     135.057 135.456 143.440  0.00  0.00     0.229 C 
BRANCH  33  34
ATOM     34  N           0     136.499 135.726 143.508  0.00  0.00    -0.079 N 
ATOM     35  H           0     136.746 136.412 142.812  0.00  0.00     0.274 HD
ATOM     36  H           0     136.733 136.078 144.425  0.00  0.00     0.274 HD
ATOM     37  H           0     137.009 134.873 143.336  0.00  0.00     0.274 HD
ENDBRANCH  33  34
ENDBRANCH  32  33
ENDBRANCH  31  32
ENDBRANCH  30  31
ENDBRANCH  29  30
ENDBRANCH  28  29
ENDBRANCH  25  28
ENDBRANCH  23  24
ENDBRANCH  22  23
ENDBRANCH   6  22
BRANCH  18  38
ATOM     38  O           0     129.646 137.251 132.859  0.00  0.00    -0.362 OA
ATOM     39  H           0     129.462 138.025 133.408  0.00  0.00     0.213 HD
ENDBRANCH  18  38
BRANCH  18  40
ATOM     40  O           0     131.396 137.266 134.424  0.00  0.00    -0.362 OA
ATOM     41  H           0     131.809 136.490 134.827  0.00  0.00     0.213 HD
ENDBRANCH  18  40
TORSDOF 12
ENDMDL
MODEL 9
REMARK VINA RESULT:      -6.8      3.837      7.606
REMARK  12 active torsions:
REMARK  status: ('A' for Active; 'I' for Inactive)
REMARK    1  A    between atoms: C_6  and  C_7 
REMARK    2  A    between atoms: C_7  and  O_8 
REMARK    3  A    between atoms: O_8  and  C_9 
REMARK       I    between atoms: C_9  and  N_10 
REMARK    4  A    between atoms: N_10  and  C_11 
REMARK    5  A    between atoms: C_11  and  C_12 
REMARK    6  A    between atoms: C_12  and  C_13 
REMARK    7  A    between atoms: C_13  and  C_14 
REMARK    8  A    between atoms: C_14  and  C_15 
REMARK    9  A    between atoms: C_15  and  C_16 
REMARK   10  A    between atoms: C_16  and  N_17 
REMARK   11  A    between atoms: C_33  and  O_34 
REMARK   12  A    between atoms: C_33  and  O_35 
ROOT
ATOM      1  N           0     130.970 132.026 132.958  0.00  0.00    -0.235 N 
ATOM      2  H           0     130.214 131.537 133.319  0.00  0.00     0.174 HD
ATOM      3  H           0     131.558 131.604 132.313  0.00  0.00     0.174 HD
ATOM      4  C           0     131.192 133.254 133.336  0.00  0.00     0.672 C 
ATOM      5  N           0     130.378 133.902 134.249  0.00  0.00    -0.218 N 
ATOM      6  C           0     130.967 134.949 135.078  0.00  0.00     0.151 C 
ATOM      7  C           0     131.722 135.983 134.267  0.00  0.00     0.180 C 
ATOM      8  N           0     130.756 136.894 133.618  0.00  0.00    -0.216 N 
ATOM      9  C           0     131.220 137.159 132.353  0.00  0.00     0.670 C 
ATOM     10  N           0     130.843 138.178 131.633  0.00  0.00    -0.235 N 
ATOM     11  H           0     130.193 138.807 131.986  0.00  0.00     0.174 HD
ATOM     12  H           0     131.212 138.308 130.746  0.00  0.00     0.174 HD
ATOM     13  C           0     132.513 135.403 133.105  0.00  0.00     0.217 C 
ATOM     14  N           0     132.133 136.220 131.942  0.00  0.00    -0.191 N 
ATOM     15  N           0     132.247 133.985 132.859  0.00  0.00    -0.183 N 
ATOM     16  C           0     133.383 133.511 132.046  0.00  0.00     0.150 C 
ATOM     17  C           0     134.610 134.244 132.638  0.00  0.00     0.093 C 
ATOM     18  C           0     134.031 135.500 133.337  0.00  0.00     0.209 C 
ATOM     19  H           0     129.440 133.666 134.335  0.00  0.00     0.178 HD
ATOM     20  H           0     129.941 137.241 134.014  0.00  0.00     0.178 HD
ATOM     21  H           0     132.470 136.114 131.037  0.00  0.00     0.180 HD
ENDROOT
BRANCH   6  22
ATOM     22  C           0     131.931 134.305 136.077  0.00  0.00     0.208 C 
BRANCH  22  23
ATOM     23  O           0     132.501 135.333 136.930  0.00  0.00    -0.302 OA
BRANCH  23  24
ATOM     24  C           0     133.259 134.986 137.987  0.00  0.00     0.360 C 
ATOM     25  N           0     132.689 134.791 139.192  0.00  0.00    -0.337 N 
ATOM     26  H           0     131.731 134.899 139.298  0.00  0.00     0.164 HD
ATOM     27  O           0     134.460 134.850 137.854  0.00  0.00    -0.239 OA
BRANCH  25  28
ATOM     28  C           0     133.516 134.414 140.342  0.00  0.00     0.125 C 
BRANCH  28  29
ATOM     29  C           0     132.814 133.310 141.134  0.00  0.00     0.020 C 
BRANCH  29  30
ATOM     30  C           0     133.802 132.679 142.116  0.00  0.00     0.002 C 
BRANCH  30  31
ATOM     31  C           0     135.223 133.127 141.768  0.00  0.00     0.002 C 
BRANCH  31  32
ATOM     32  C           0     136.035 133.296 143.054  0.00  0.00     0.027 C 
BRANCH  32  33
ATOM     33  C           0     135.406 134.395 143.912  0.00  0.00     0.229 C 
BRANCH  33  34
ATOM     34  N           0     135.698 135.707 143.319  0.00  0.00    -0.079 N 
ATOM     35  H           0     135.128 136.411 143.763  0.00  0.00     0.274 HD
ATOM     36  H           0     136.673 135.928 143.454  0.00  0.00     0.274 HD
ATOM     37  H           0     135.493 135.682 142.331  0.00  0.00     0.274 HD
ENDBRANCH  33  34
ENDBRANCH  32  33
ENDBRANCH  31  32
ENDBRANCH  30  31
ENDBRANCH  29  30
ENDBRANCH  28  29
ENDBRANCH  25  28
ENDBRANCH  23  24
ENDBRANCH  22  23
ENDBRANCH   6  22
BRANCH  18  38
ATOM     38  O           0     134.556 136.688 132.742  0.00  0.00    -0.362 OA
ATOM     39  H           0     134.273 136.685 131.818  0.00  0.00     0.213 HD
ENDBRANCH  18  38
BRANCH  18  40
ATOM     40  O           0     134.322 135.470 134.736  0.00  0.00    -0.362 OA
ATOM     41  H           0     134.425 134.539 134.980  0.00  0.00     0.213 HD
ENDBRANCH  18  40
TORSDOF 12
ENDMDL
