MODEL 1
REMARK VINA RESULT:      -8.9      0.000      0.000
REMARK  11 active torsions:
REMARK  status: ('A' for Active; 'I' for Inactive)
REMARK    1  A    between atoms: C_6  and  C_7 
REMARK    2  A    between atoms: C_7  and  O_8 
REMARK    3  A    between atoms: O_8  and  C_9 
REMARK       I    between atoms: C_9  and  N_10 
REMARK    4  A    between atoms: N_10  and  C_11 
REMARK    5  A    between atoms: C_11  and  C_12 
REMARK    6  A    between atoms: C_12  and  N_13 
REMARK       I    between atoms: N_13  and  C_14 
REMARK    7  A    between atoms: C_14  and  C_15 
REMARK    8  A    between atoms: C_15  and  C_16 
REMARK    9  A    between atoms: C_16  and  N_17 
REMARK   10  A    between atoms: C_37  and  O_38 
REMARK   11  A    between atoms: C_37  and  O_39 
ROOT
ATOM      1  N           0     137.658 134.959 142.971  0.00  0.00    -0.235 N 
ATOM      2  H           0     137.809 135.848 142.613  0.00  0.00     0.174 HD
ATOM      3  H           0     138.409 134.367 143.133  0.00  0.00     0.174 HD
ATOM      4  C           0     136.446 134.560 143.239  0.00  0.00     0.672 C 
ATOM      5  N           0     135.343 135.369 143.031  0.00  0.00    -0.218 N 
ATOM      6  C           0     134.062 134.730 142.743  0.00  0.00     0.151 C 
ATOM      7  C           0     133.705 133.654 143.750  0.00  0.00     0.180 C 
ATOM      8  N           0     133.227 134.293 144.995  0.00  0.00    -0.216 N 
ATOM      9  C           0     133.736 133.576 146.051  0.00  0.00     0.670 C 
ATOM     10  N           0     133.252 133.612 147.260  0.00  0.00    -0.235 N 
ATOM     11  H           0     132.485 134.171 147.460  0.00  0.00     0.174 HD
ATOM     12  H           0     133.660 133.080 147.962  0.00  0.00     0.174 HD
ATOM     13  C           0     134.887 132.811 144.203  0.00  0.00     0.217 C 
ATOM     14  N           0     134.815 132.817 145.673  0.00  0.00    -0.191 N 
ATOM     15  N           0     136.182 133.313 143.740  0.00  0.00    -0.183 N 
ATOM     16  C           0     137.111 132.176 143.875  0.00  0.00     0.150 C 
ATOM     17  C           0     136.272 130.944 143.459  0.00  0.00     0.093 C 
ATOM     18  C           0     134.798 131.368 143.680  0.00  0.00     0.209 C 
ATOM     19  H           0     135.418 136.335 143.076  0.00  0.00     0.178 HD
ATOM     20  H           0     132.658 135.075 145.056  0.00  0.00     0.178 HD
ATOM     21  H           0     135.424 132.359 146.274  0.00  0.00     0.180 HD
ENDROOT
BRANCH   6  22
ATOM     22  C           0     134.125 134.100 141.351  0.00  0.00     0.208 C 
BRANCH  22  23
ATOM     23  O           0     132.921 134.435 140.612  0.00  0.00    -0.302 OA
BRANCH  23  24
ATOM     24  C           0     131.983 133.494 140.392  0.00  0.00     0.360 C 
ATOM     25  N           0     131.543 133.262 139.139  0.00  0.00    -0.335 N 
ATOM     26  H           0     131.902 133.772 138.397  0.00  0.00     0.164 HD
ATOM     27  O           0     131.534 132.854 141.322  0.00  0.00    -0.239 OA
BRANCH  25  28
ATOM     28  C           0     130.523 132.238 138.899  0.00  0.00     0.144 C 
BRANCH  28  29
ATOM     29  C           0     130.674 131.691 137.478  0.00  0.00     0.142 C 
BRANCH  29  30
ATOM     30  N           0     130.435 132.767 136.513  0.00  0.00    -0.359 N 
ATOM     31  C           0     131.061 132.751 135.319  0.00  0.00     0.219 C 
ATOM     32  O           0     131.820 131.847 135.044  0.00  0.00    -0.274 OA
ATOM     33  H           0     129.828 133.490 136.733  0.00  0.00     0.162 HD
BRANCH  31  34
ATOM     34  C           0     130.816 133.858 134.326  0.00  0.00     0.123 C 
BRANCH  34  35
ATOM     35  C           0     131.227 135.197 134.940  0.00  0.00     0.144 C 
BRANCH  35  36
ATOM     36  N           0     132.688 135.281 135.001  0.00  0.00    -0.288 N 
ATOM     37  C           0     133.375 135.126 136.140  0.00  0.00     0.226 A 
ATOM     38  C           0     134.854 135.267 135.851  0.00  0.00     0.112 A 
ATOM     39  O           0     132.890 134.901 137.227  0.00  0.00    -0.273 OA
ATOM     40  C           0     134.901 135.543 134.334  0.00  0.00     0.112 A 
ATOM     41  C           0     133.445 135.523 133.924  0.00  0.00     0.226 A 
ATOM     42  O           0     133.030 135.699 132.799  0.00  0.00    -0.273 OA
ENDBRANCH  35  36
ENDBRANCH  34  35
ENDBRANCH  31  34
ENDBRANCH  29  30
ENDBRANCH  28  29
ENDBRANCH  25  28
ENDBRANCH  23  24
ENDBRANCH  22  23
ENDBRANCH   6  22
BRANCH  18  43
ATOM     43  O           0     134.175 130.519 144.647  0.00  0.00    -0.362 OA
ATOM     44  H           0     134.873 129.972 145.029  0.00  0.00     0.213 HD
ENDBRANCH  18  43
BRANCH  18  45
ATOM     45  O           0     134.078 131.330 142.446  0.00  0.00    -0.362 OA
ATOM     46  H           0     133.567 132.150 142.395  0.00  0.00     0.213 HD
ENDBRANCH  18  45
TORSDOF 11
ENDMDL
MODEL 2
REMARK VINA RESULT:      -8.5      2.032      3.442
REMARK  11 active torsions:
REMARK  status: ('A' for Active; 'I' for Inactive)
REMARK    1  A    between atoms: C_6  and  C_7 
REMARK    2  A    between atoms: C_7  and  O_8 
REMARK    3  A    between atoms: O_8  and  C_9 
REMARK       I    between atoms: C_9  and  N_10 
REMARK    4  A    between atoms: N_10  and  C_11 
REMARK    5  A    between atoms: C_11  and  C_12 
REMARK    6  A    between atoms: C_12  and  N_13 
REMARK       I    between atoms: N_13  and  C_14 
REMARK    7  A    between atoms: C_14  and  C_15 
REMARK    8  A    between atoms: C_15  and  C_16 
REMARK    9  A    between atoms: C_16  and  N_17 
REMARK   10  A    between atoms: C_37  and  O_38 
REMARK   11  A    between atoms: C_37  and  O_39 
ROOT
ATOM      1  N           0     137.662 135.001 143.058  0.00  0.00    -0.235 N 
ATOM      2  H           0     137.818 135.906 142.748  0.00  0.00     0.174 HD
ATOM      3  H           0     138.406 134.386 143.158  0.00  0.00     0.174 HD
ATOM      4  C           0     136.452 134.610 143.347  0.00  0.00     0.672 C 
ATOM      5  N           0     135.359 135.451 143.227  0.00  0.00    -0.218 N 
ATOM      6  C           0     134.056 134.854 142.949  0.00  0.00     0.151 C 
ATOM      7  C           0     133.712 133.727 143.904  0.00  0.00     0.180 C 
ATOM      8  N           0     133.292 134.299 145.201  0.00  0.00    -0.216 N 
ATOM      9  C           0     133.823 133.512 146.194  0.00  0.00     0.670 C 
ATOM     10  N           0     133.384 133.485 147.420  0.00  0.00    -0.235 N 
ATOM     11  H           0     132.636 134.047 147.680  0.00  0.00     0.174 HD
ATOM     12  H           0     133.805 132.905 148.074  0.00  0.00     0.174 HD
ATOM     13  C           0     134.892 132.837 144.264  0.00  0.00     0.217 C 
ATOM     14  N           0     134.872 132.757 145.733  0.00  0.00    -0.191 N 
ATOM     15  N           0     136.180 133.341 143.784  0.00  0.00    -0.183 N 
ATOM     16  C           0     137.089 132.181 143.818  0.00  0.00     0.150 C 
ATOM     17  C           0     136.211 130.991 143.362  0.00  0.00     0.093 C 
ATOM     18  C           0     134.754 131.428 143.661  0.00  0.00     0.209 C 
ATOM     19  H           0     135.456 136.411 143.325  0.00  0.00     0.178 HD
ATOM     20  H           0     132.742 135.088 145.328  0.00  0.00     0.178 HD
ATOM     21  H           0     135.493 132.253 146.283  0.00  0.00     0.180 HD
ENDROOT
BRANCH   6  22
ATOM     22  C           0     134.057 134.305 141.521  0.00  0.00     0.208 C 
BRANCH  22  23
ATOM     23  O           0     133.289 135.189 140.663  0.00  0.00    -0.302 OA
BRANCH  23  24
ATOM     24  C           0     133.069 134.855 139.377  0.00  0.00     0.360 C 
ATOM     25  N           0     133.581 135.612 138.387  0.00  0.00    -0.335 N 
ATOM     26  H           0     134.109 136.398 138.600  0.00  0.00     0.164 HD
ATOM     27  O           0     132.409 133.871 139.109  0.00  0.00    -0.239 OA
BRANCH  25  28
ATOM     28  C           0     133.343 135.248 136.988  0.00  0.00     0.144 C 
BRANCH  28  29
ATOM     29  C           0     134.657 135.332 136.208  0.00  0.00     0.142 C 
BRANCH  29  30
ATOM     30  N           0     134.610 134.406 135.073  0.00  0.00    -0.359 N 
ATOM     31  C           0     134.508 134.885 133.818  0.00  0.00     0.219 C 
ATOM     32  O           0     134.455 136.082 133.627  0.00  0.00    -0.274 OA
ATOM     33  H           0     134.653 133.449 135.225  0.00  0.00     0.162 HD
BRANCH  31  34
ATOM     34  C           0     134.460 133.934 132.649  0.00  0.00     0.123 C 
BRANCH  34  35
ATOM     35  C           0     134.800 132.521 133.126  0.00  0.00     0.144 C 
BRANCH  35  36
ATOM     36  N           0     133.650 131.641 132.908  0.00  0.00    -0.288 N 
ATOM     37  C           0     133.505 130.900 131.802  0.00  0.00     0.226 A 
ATOM     38  C           0     132.218 130.109 131.900  0.00  0.00     0.112 A 
ATOM     39  O           0     134.283 130.863 130.875  0.00  0.00    -0.273 OA
ATOM     40  C           0     131.635 130.534 133.262  0.00  0.00     0.112 A 
ATOM     41  C           0     132.655 131.516 133.795  0.00  0.00     0.226 A 
ATOM     42  O           0     132.583 132.097 134.857  0.00  0.00    -0.273 OA
ENDBRANCH  35  36
ENDBRANCH  34  35
ENDBRANCH  31  34
ENDBRANCH  29  30
ENDBRANCH  28  29
ENDBRANCH  25  28
ENDBRANCH  23  24
ENDBRANCH  22  23
ENDBRANCH   6  22
BRANCH  18  43
ATOM     43  O           0     134.149 130.536 144.599  0.00  0.00    -0.362 OA
ATOM     44  H           0     133.311 130.250 144.212  0.00  0.00     0.213 HD
ENDBRANCH  18  43
BRANCH  18  45
ATOM     45  O           0     133.991 131.477 142.454  0.00  0.00    -0.362 OA
ATOM     46  H           0     133.114 131.127 142.664  0.00  0.00     0.213 HD
ENDBRANCH  18  45
TORSDOF 11
ENDMDL
MODEL 3
REMARK VINA RESULT:      -8.5      2.133      3.618
REMARK  11 active torsions:
REMARK  status: ('A' for Active; 'I' for Inactive)
REMARK    1  A    between atoms: C_6  and  C_7 
REMARK    2  A    between atoms: C_7  and  O_8 
REMARK    3  A    between atoms: O_8  and  C_9 
REMARK       I    between atoms: C_9  and  N_10 
REMARK    4  A    between atoms: N_10  and  C_11 
REMARK    5  A    between atoms: C_11  and  C_12 
REMARK    6  A    between atoms: C_12  and  N_13 
REMARK       I    between atoms: N_13  and  C_14 
REMARK    7  A    between atoms: C_14  and  C_15 
REMARK    8  A    between atoms: C_15  and  C_16 
REMARK    9  A    between atoms: C_16  and  N_17 
REMARK   10  A    between atoms: C_37  and  O_38 
REMARK   11  A    between atoms: C_37  and  O_39 
ROOT
ATOM      1  N           0     137.468 135.352 143.213  0.00  0.00    -0.235 N 
ATOM      2  H           0     137.556 136.261 142.886  0.00  0.00     0.174 HD
ATOM      3  H           0     138.259 134.808 143.352  0.00  0.00     0.174 HD
ATOM      4  C           0     136.288 134.864 143.473  0.00  0.00     0.672 C 
ATOM      5  N           0     135.131 135.602 143.298  0.00  0.00    -0.218 N 
ATOM      6  C           0     133.894 134.888 142.994  0.00  0.00     0.151 C 
ATOM      7  C           0     133.618 133.756 143.964  0.00  0.00     0.180 C 
ATOM      8  N           0     133.107 134.317 145.233  0.00  0.00    -0.216 N 
ATOM      9  C           0     133.670 133.601 146.261  0.00  0.00     0.670 C 
ATOM     10  N           0     133.193 133.563 147.473  0.00  0.00    -0.235 N 
ATOM     11  H           0     132.392 134.062 147.695  0.00  0.00     0.174 HD
ATOM     12  H           0     133.642 133.036 148.154  0.00  0.00     0.174 HD
ATOM     13  C           0     134.859 132.981 144.383  0.00  0.00     0.217 C 
ATOM     14  N           0     134.796 132.931 145.853  0.00  0.00    -0.191 N 
ATOM     15  N           0     136.113 133.585 143.932  0.00  0.00    -0.183 N 
ATOM     16  C           0     137.118 132.510 144.024  0.00  0.00     0.150 C 
ATOM     17  C           0     136.362 131.238 143.569  0.00  0.00     0.093 C 
ATOM     18  C           0     134.864 131.553 143.811  0.00  0.00     0.209 C 
ATOM     19  H           0     135.141 136.569 143.376  0.00  0.00     0.178 HD
ATOM     20  H           0     132.486 135.057 145.323  0.00  0.00     0.178 HD
ATOM     21  H           0     135.439 132.495 146.434  0.00  0.00     0.180 HD
ENDROOT
BRANCH   6  22
ATOM     22  C           0     133.992 134.311 141.580  0.00  0.00     0.208 C 
BRANCH  22  23
ATOM     23  O           0     133.300 135.186 140.652  0.00  0.00    -0.302 OA
BRANCH  23  24
ATOM     24  C           0     133.215 134.854 139.349  0.00  0.00     0.360 C 
ATOM     25  N           0     133.880 135.575 138.425  0.00  0.00    -0.335 N 
ATOM     26  H           0     134.420 136.333 138.698  0.00  0.00     0.164 HD
ATOM     27  O           0     132.538 133.904 139.007  0.00  0.00    -0.239 OA
BRANCH  25  28
ATOM     28  C           0     133.789 135.213 137.009  0.00  0.00     0.144 C 
BRANCH  28  29
ATOM     29  C           0     132.401 135.578 136.477  0.00  0.00     0.142 C 
BRANCH  29  30
ATOM     30  N           0     131.662 134.353 136.159  0.00  0.00    -0.359 N 
ATOM     31  C           0     131.732 133.828 134.920  0.00  0.00     0.219 C 
ATOM     32  O           0     132.405 134.368 134.069  0.00  0.00    -0.274 OA
ATOM     33  H           0     131.123 133.921 136.840  0.00  0.00     0.162 HD
BRANCH  31  34
ATOM     34  C           0     130.972 132.568 134.592  0.00  0.00     0.123 C 
BRANCH  34  35
ATOM     35  C           0     131.329 132.110 133.177  0.00  0.00     0.144 C 
BRANCH  35  36
ATOM     36  N           0     130.748 130.788 132.930  0.00  0.00    -0.288 N 
ATOM     37  C           0     129.511 130.620 132.446  0.00  0.00     0.226 A 
ATOM     38  C           0     129.229 129.139 132.307  0.00  0.00     0.112 A 
ATOM     39  O           0     128.742 131.511 132.158  0.00  0.00    -0.273 OA
ATOM     40  C           0     130.527 128.475 132.809  0.00  0.00     0.112 A 
ATOM     41  C           0     131.408 129.649 133.174  0.00  0.00     0.226 A 
ATOM     42  O           0     132.535 129.572 133.616  0.00  0.00    -0.273 OA
ENDBRANCH  35  36
ENDBRANCH  34  35
ENDBRANCH  31  34
ENDBRANCH  29  30
ENDBRANCH  28  29
ENDBRANCH  25  28
ENDBRANCH  23  24
ENDBRANCH  22  23
ENDBRANCH   6  22
BRANCH  18  43
ATOM     43  O           0     134.307 130.632 144.751  0.00  0.00    -0.362 OA
ATOM     44  H           0     134.958 129.928 144.872  0.00  0.00     0.213 HD
ENDBRANCH  18  43
BRANCH  18  45
ATOM     45  O           0     134.140 131.508 142.580  0.00  0.00    -0.362 OA
ATOM     46  H           0     134.268 130.623 142.212  0.00  0.00     0.213 HD
ENDBRANCH  18  45
TORSDOF 11
ENDMDL
MODEL 4
REMARK VINA RESULT:      -8.4      2.513      3.902
REMARK  11 active torsions:
REMARK  status: ('A' for Active; 'I' for Inactive)
REMARK    1  A    between atoms: C_6  and  C_7 
REMARK    2  A    between atoms: C_7  and  O_8 
REMARK    3  A    between atoms: O_8  and  C_9 
REMARK       I    between atoms: C_9  and  N_10 
REMARK    4  A    between atoms: N_10  and  C_11 
REMARK    5  A    between atoms: C_11  and  C_12 
REMARK    6  A    between atoms: C_12  and  N_13 
REMARK       I    between atoms: N_13  and  C_14 
REMARK    7  A    between atoms: C_14  and  C_15 
REMARK    8  A    between atoms: C_15  and  C_16 
REMARK    9  A    between atoms: C_16  and  N_17 
REMARK   10  A    between atoms: C_37  and  O_38 
REMARK   11  A    between atoms: C_37  and  O_39 
ROOT
ATOM      1  N           0     137.489 134.933 142.966  0.00  0.00    -0.235 N 
ATOM      2  H           0     137.612 135.831 142.622  0.00  0.00     0.174 HD
ATOM      3  H           0     138.256 134.355 143.101  0.00  0.00     0.174 HD
ATOM      4  C           0     136.292 134.503 143.253  0.00  0.00     0.672 C 
ATOM      5  N           0     135.167 135.291 143.084  0.00  0.00    -0.218 N 
ATOM      6  C           0     133.894 134.629 142.812  0.00  0.00     0.151 C 
ATOM      7  C           0     133.583 133.526 143.806  0.00  0.00     0.180 C 
ATOM      8  N           0     133.119 134.131 145.073  0.00  0.00    -0.216 N 
ATOM      9  C           0     133.667 133.406 146.104  0.00  0.00     0.670 C 
ATOM     10  N           0     133.210 133.409 147.324  0.00  0.00    -0.235 N 
ATOM     11  H           0     132.435 133.948 147.551  0.00  0.00     0.174 HD
ATOM     12  H           0     133.645 132.874 148.007  0.00  0.00     0.174 HD
ATOM     13  C           0     134.794 132.702 144.218  0.00  0.00     0.217 C 
ATOM     14  N           0     134.754 132.679 145.689  0.00  0.00    -0.191 N 
ATOM     15  N           0     136.066 133.241 143.736  0.00  0.00    -0.183 N 
ATOM     16  C           0     137.023 132.123 143.830  0.00  0.00     0.150 C 
ATOM     17  C           0     136.203 130.880 143.409  0.00  0.00     0.093 C 
ATOM     18  C           0     134.724 131.267 143.669  0.00  0.00     0.209 C 
ATOM     19  H           0     135.223 136.257 143.146  0.00  0.00     0.178 HD
ATOM     20  H           0     132.535 134.900 145.161  0.00  0.00     0.178 HD
ATOM     21  H           0     135.387 132.224 146.267  0.00  0.00     0.180 HD
ENDROOT
BRANCH   6  22
ATOM     22  C           0     133.941 134.025 141.407  0.00  0.00     0.208 C 
BRANCH  22  23
ATOM     23  O           0     132.645 133.457 141.082  0.00  0.00    -0.302 OA
BRANCH  23  24
ATOM     24  C           0     132.168 133.546 139.825  0.00  0.00     0.360 C 
ATOM     25  N           0     131.117 132.791 139.449  0.00  0.00    -0.335 N 
ATOM     26  H           0     130.705 132.183 140.083  0.00  0.00     0.164 HD
ATOM     27  O           0     132.684 134.308 139.032  0.00  0.00    -0.239 OA
BRANCH  25  28
ATOM     28  C           0     130.597 132.888 138.083  0.00  0.00     0.144 C 
BRANCH  28  29
ATOM     29  C           0     130.697 131.522 137.400  0.00  0.00     0.142 C 
BRANCH  29  30
ATOM     30  N           0     130.173 131.619 136.035  0.00  0.00    -0.359 N 
ATOM     31  C           0     131.013 131.538 134.985  0.00  0.00     0.219 C 
ATOM     32  O           0     132.202 131.383 135.169  0.00  0.00    -0.274 OA
ATOM     33  H           0     129.222 131.743 135.888  0.00  0.00     0.162 HD
BRANCH  31  34
ATOM     34  C           0     130.475 131.637 133.580  0.00  0.00     0.123 C 
BRANCH  34  35
ATOM     35  C           0     131.357 130.818 132.636  0.00  0.00     0.144 C 
BRANCH  35  36
ATOM     36  N           0     130.809 129.465 132.506  0.00  0.00    -0.288 N 
ATOM     37  C           0     129.616 129.218 131.950  0.00  0.00     0.226 A 
ATOM     38  C           0     129.358 127.727 131.970  0.00  0.00     0.112 A 
ATOM     39  O           0     128.866 130.054 131.497  0.00  0.00    -0.273 OA
ATOM     40  C           0     130.617 127.152 132.650  0.00  0.00     0.112 A 
ATOM     41  C           0     131.456 128.376 132.938  0.00  0.00     0.226 A 
ATOM     42  O           0     132.544 128.373 133.474  0.00  0.00    -0.273 OA
ENDBRANCH  35  36
ENDBRANCH  34  35
ENDBRANCH  31  34
ENDBRANCH  29  30
ENDBRANCH  28  29
ENDBRANCH  25  28
ENDBRANCH  23  24
ENDBRANCH  22  23
ENDBRANCH   6  22
BRANCH  18  43
ATOM     43  O           0     134.142 130.387 144.634  0.00  0.00    -0.362 OA
ATOM     44  H           0     133.250 130.184 144.324  0.00  0.00     0.213 HD
ENDBRANCH  18  43
BRANCH  18  45
ATOM     45  O           0     133.979 131.236 142.451  0.00  0.00    -0.362 OA
ATOM     46  H           0     133.837 130.304 142.233  0.00  0.00     0.213 HD
ENDBRANCH  18  45
TORSDOF 11
ENDMDL
MODEL 5
REMARK VINA RESULT:      -8.3      1.758      2.857
REMARK  11 active torsions:
REMARK  status: ('A' for Active; 'I' for Inactive)
REMARK    1  A    between atoms: C_6  and  C_7 
REMARK    2  A    between atoms: C_7  and  O_8 
REMARK    3  A    between atoms: O_8  and  C_9 
REMARK       I    between atoms: C_9  and  N_10 
REMARK    4  A    between atoms: N_10  and  C_11 
REMARK    5  A    between atoms: C_11  and  C_12 
REMARK    6  A    between atoms: C_12  and  N_13 
REMARK       I    between atoms: N_13  and  C_14 
REMARK    7  A    between atoms: C_14  and  C_15 
REMARK    8  A    between atoms: C_15  and  C_16 
REMARK    9  A    between atoms: C_16  and  N_17 
REMARK   10  A    between atoms: C_37  and  O_38 
REMARK   11  A    between atoms: C_37  and  O_39 
ROOT
ATOM      1  N           0     137.780 135.018 143.208  0.00  0.00    -0.235 N 
ATOM      2  H           0     137.868 135.583 142.424  0.00  0.00     0.174 HD
ATOM      3  H           0     138.573 134.691 143.662  0.00  0.00     0.174 HD
ATOM      4  C           0     136.597 134.700 143.654  0.00  0.00     0.672 C 
ATOM      5  N           0     135.437 135.146 143.044  0.00  0.00    -0.218 N 
ATOM      6  C           0     134.238 134.320 143.154  0.00  0.00     0.151 C 
ATOM      7  C           0     133.927 133.926 144.585  0.00  0.00     0.180 C 
ATOM      8  N           0     133.325 135.080 145.287  0.00  0.00    -0.216 N 
ATOM      9  C           0     133.839 135.106 146.561  0.00  0.00     0.670 C 
ATOM     10  N           0     133.289 135.737 147.559  0.00  0.00    -0.235 N 
ATOM     11  H           0     132.464 136.230 147.426  0.00  0.00     0.174 HD
ATOM     12  H           0     133.705 135.715 148.436  0.00  0.00     0.174 HD
ATOM     13  C           0     135.155 133.594 145.419  0.00  0.00     0.217 C 
ATOM     14  N           0     135.002 134.384 146.651  0.00  0.00    -0.191 N 
ATOM     15  N           0     136.421 133.901 144.752  0.00  0.00    -0.183 N 
ATOM     16  C           0     137.442 133.124 145.479  0.00  0.00     0.150 C 
ATOM     17  C           0     136.745 131.781 145.802  0.00  0.00     0.093 C 
ATOM     18  C           0     135.227 132.096 145.763  0.00  0.00     0.209 C 
ATOM     19  H           0     135.421 135.985 142.558  0.00  0.00     0.178 HD
ATOM     20  H           0     132.684 135.706 144.916  0.00  0.00     0.178 HD
ATOM     21  H           0     135.617 134.391 147.402  0.00  0.00     0.180 HD
ENDROOT
BRANCH   6  22
ATOM     22  C           0     134.435 133.049 142.327  0.00  0.00     0.208 C 
BRANCH  22  23
ATOM     23  O           0     133.212 132.746 141.605  0.00  0.00    -0.302 OA
BRANCH  23  24
ATOM     24  C           0     132.755 133.598 140.667  0.00  0.00     0.360 C 
ATOM     25  N           0     133.593 134.489 140.101  0.00  0.00    -0.335 N 
ATOM     26  H           0     134.525 134.516 140.369  0.00  0.00     0.164 HD
ATOM     27  O           0     131.588 133.562 140.331  0.00  0.00    -0.239 OA
BRANCH  25  28
ATOM     28  C           0     133.097 135.414 139.080  0.00  0.00     0.144 C 
BRANCH  28  29
ATOM     29  C           0     133.704 135.051 137.723  0.00  0.00     0.142 C 
BRANCH  29  30
ATOM     30  N           0     132.661 135.090 136.695  0.00  0.00    -0.359 N 
ATOM     31  C           0     132.963 135.487 135.444  0.00  0.00     0.219 C 
ATOM     32  O           0     134.099 135.813 135.168  0.00  0.00    -0.274 OA
ATOM     33  H           0     131.753 134.830 136.916  0.00  0.00     0.162 HD
BRANCH  31  34
ATOM     34  C           0     131.891 135.527 134.386  0.00  0.00     0.123 C 
BRANCH  34  35
ATOM     35  C           0     130.679 134.720 134.856  0.00  0.00     0.144 C 
BRANCH  35  36
ATOM     36  N           0     130.638 133.440 134.146  0.00  0.00    -0.288 N 
ATOM     37  C           0     131.167 132.317 134.648  0.00  0.00     0.226 A 
ATOM     38  C           0     130.949 131.184 133.668  0.00  0.00     0.112 A 
ATOM     39  O           0     131.725 132.221 135.719  0.00  0.00    -0.273 OA
ATOM     40  C           0     130.204 131.857 132.498  0.00  0.00     0.112 A 
ATOM     41  C           0     130.074 133.297 132.941  0.00  0.00     0.226 A 
ATOM     42  O           0     129.542 134.183 132.305  0.00  0.00    -0.273 OA
ENDBRANCH  35  36
ENDBRANCH  34  35
ENDBRANCH  31  34
ENDBRANCH  29  30
ENDBRANCH  28  29
ENDBRANCH  25  28
ENDBRANCH  23  24
ENDBRANCH  22  23
ENDBRANCH   6  22
BRANCH  18  43
ATOM     43  O           0     134.633 131.843 147.038  0.00  0.00    -0.362 OA
ATOM     44  H           0     133.803 131.380 146.872  0.00  0.00     0.213 HD
ENDBRANCH  18  43
BRANCH  18  45
ATOM     45  O           0     134.583 131.322 144.750  0.00  0.00    -0.362 OA
ATOM     46  H           0     135.200 130.621 144.499  0.00  0.00     0.213 HD
ENDBRANCH  18  45
TORSDOF 11
ENDMDL
MODEL 6
REMARK VINA RESULT:      -8.0      2.269      3.868
REMARK  11 active torsions:
REMARK  status: ('A' for Active; 'I' for Inactive)
REMARK    1  A    between atoms: C_6  and  C_7 
REMARK    2  A    between atoms: C_7  and  O_8 
REMARK    3  A    between atoms: O_8  and  C_9 
REMARK       I    between atoms: C_9  and  N_10 
REMARK    4  A    between atoms: N_10  and  C_11 
REMARK    5  A    between atoms: C_11  and  C_12 
REMARK    6  A    between atoms: C_12  and  N_13 
REMARK       I    between atoms: N_13  and  C_14 
REMARK    7  A    between atoms: C_14  and  C_15 
REMARK    8  A    between atoms: C_15  and  C_16 
REMARK    9  A    between atoms: C_16  and  N_17 
REMARK   10  A    between atoms: C_37  and  O_38 
REMARK   11  A    between atoms: C_37  and  O_39 
ROOT
ATOM      1  N           0     133.942 135.631 144.838  0.00  0.00    -0.235 N 
ATOM      2  H           0     133.075 136.025 144.653  0.00  0.00     0.174 HD
ATOM      3  H           0     134.595 136.119 145.364  0.00  0.00     0.174 HD
ATOM      4  C           0     134.228 134.442 144.386  0.00  0.00     0.672 C 
ATOM      5  N           0     133.329 133.704 143.637  0.00  0.00    -0.218 N 
ATOM      6  C           0     133.857 132.743 142.673  0.00  0.00     0.151 C 
ATOM      7  C           0     134.882 131.806 143.282  0.00  0.00     0.180 C 
ATOM      8  N           0     134.185 130.778 144.085  0.00  0.00    -0.216 N 
ATOM      9  C           0     134.927 130.565 145.221  0.00  0.00     0.670 C 
ATOM     10  N           0     134.830 129.503 145.970  0.00  0.00    -0.235 N 
ATOM     11  H           0     134.203 128.801 145.737  0.00  0.00     0.174 HD
ATOM     12  H           0     135.385 129.415 146.761  0.00  0.00     0.174 HD
ATOM     13  C           0     135.818 132.473 144.278  0.00  0.00     0.217 C 
ATOM     14  N           0     135.784 131.608 145.469  0.00  0.00    -0.191 N 
ATOM     15  N           0     135.440 133.846 144.617  0.00  0.00    -0.183 N 
ATOM     16  C           0     136.651 134.452 145.198  0.00  0.00     0.150 C 
ATOM     17  C           0     137.812 133.881 144.348  0.00  0.00     0.093 C 
ATOM     18  C           0     137.256 132.567 143.741  0.00  0.00     0.209 C 
ATOM     19  H           0     132.372 133.821 143.750  0.00  0.00     0.178 HD
ATOM     20  H           0     133.354 130.335 143.852  0.00  0.00     0.178 HD
ATOM     21  H           0     136.284 131.749 146.288  0.00  0.00     0.180 HD
ENDROOT
BRANCH   6  22
ATOM     22  C           0     134.512 133.507 141.521  0.00  0.00     0.208 C 
BRANCH  22  23
ATOM     23  O           0     133.589 134.508 141.017  0.00  0.00    -0.302 OA
BRANCH  23  24
ATOM     24  C           0     133.231 134.500 139.719  0.00  0.00     0.360 C 
ATOM     25  N           0     133.809 135.358 138.856  0.00  0.00    -0.335 N 
ATOM     26  H           0     134.484 135.980 139.169  0.00  0.00     0.164 HD
ATOM     27  O           0     132.386 133.720 139.327  0.00  0.00    -0.239 OA
BRANCH  25  28
ATOM     28  C           0     133.420 135.349 137.444  0.00  0.00     0.144 C 
BRANCH  28  29
ATOM     29  C           0     134.674 135.404 136.568  0.00  0.00     0.142 C 
BRANCH  29  30
ATOM     30  N           0     134.540 134.451 135.463  0.00  0.00    -0.359 N 
ATOM     31  C           0     134.499 134.896 134.192  0.00  0.00     0.219 C 
ATOM     32  O           0     134.574 136.085 133.962  0.00  0.00    -0.274 OA
ATOM     33  H           0     134.481 133.501 135.647  0.00  0.00     0.162 HD
BRANCH  31  34
ATOM     34  C           0     134.362 133.917 133.055  0.00  0.00     0.123 C 
BRANCH  34  35
ATOM     35  C           0     134.407 132.489 133.601  0.00  0.00     0.144 C 
BRANCH  35  36
ATOM     36  N           0     133.108 131.844 133.391  0.00  0.00    -0.288 N 
ATOM     37  C           0     132.827 131.122 132.299  0.00  0.00     0.226 A 
ATOM     38  C           0     131.411 130.597 132.402  0.00  0.00     0.112 A 
ATOM     39  O           0     133.587 130.915 131.379  0.00  0.00    -0.273 OA
ATOM     40  C           0     130.915 131.156 133.751  0.00  0.00     0.112 A 
ATOM     41  C           0     132.104 131.932 134.272  0.00  0.00     0.226 A 
ATOM     42  O           0     132.142 132.539 135.321  0.00  0.00    -0.273 OA
ENDBRANCH  35  36
ENDBRANCH  34  35
ENDBRANCH  31  34
ENDBRANCH  29  30
ENDBRANCH  28  29
ENDBRANCH  25  28
ENDBRANCH  23  24
ENDBRANCH  22  23
ENDBRANCH   6  22
BRANCH  18  43
ATOM     43  O           0     138.032 131.449 144.180  0.00  0.00    -0.362 OA
ATOM     44  H           0     138.297 131.633 145.090  0.00  0.00     0.213 HD
ENDBRANCH  18  43
BRANCH  18  45
ATOM     45  O           0     137.250 132.640 142.314  0.00  0.00    -0.362 OA
ATOM     46  H           0     138.170 132.745 142.035  0.00  0.00     0.213 HD
ENDBRANCH  18  45
TORSDOF 11
ENDMDL
MODEL 7
REMARK VINA RESULT:      -8.0      2.508     10.070
REMARK  11 active torsions:
REMARK  status: ('A' for Active; 'I' for Inactive)
REMARK    1  A    between atoms: C_6  and  C_7 
REMARK    2  A    between atoms: C_7  and  O_8 
REMARK    3  A    between atoms: O_8  and  C_9 
REMARK       I    between atoms: C_9  and  N_10 
REMARK    4  A    between atoms: N_10  and  C_11 
REMARK    5  A    between atoms: C_11  and  C_12 
REMARK    6  A    between atoms: C_12  and  N_13 
REMARK       I    between atoms: N_13  and  C_14 
REMARK    7  A    between atoms: C_14  and  C_15 
REMARK    8  A    between atoms: C_15  and  C_16 
REMARK    9  A    between atoms: C_16  and  N_17 
REMARK   10  A    between atoms: C_37  and  O_38 
REMARK   11  A    between atoms: C_37  and  O_39 
ROOT
ATOM      1  N           0     130.982 133.348 136.487  0.00  0.00    -0.235 N 
ATOM      2  H           0     130.998 134.059 137.146  0.00  0.00     0.174 HD
ATOM      3  H           0     131.084 132.424 136.766  0.00  0.00     0.174 HD
ATOM      4  C           0     130.818 133.632 135.225  0.00  0.00     0.672 C 
ATOM      5  N           0     130.661 134.932 134.778  0.00  0.00    -0.218 N 
ATOM      6  C           0     131.098 135.255 133.423  0.00  0.00     0.151 C 
ATOM      7  C           0     130.537 134.303 132.385  0.00  0.00     0.180 C 
ATOM      8  N           0     129.123 134.646 132.124  0.00  0.00    -0.216 N 
ATOM      9  C           0     128.427 133.469 131.988  0.00  0.00     0.670 C 
ATOM     10  N           0     127.265 133.369 131.406  0.00  0.00    -0.235 N 
ATOM     11  H           0     126.838 134.158 131.037  0.00  0.00     0.174 HD
ATOM     12  H           0     126.827 132.505 131.344  0.00  0.00     0.174 HD
ATOM     13  C           0     130.481 132.852 132.839  0.00  0.00     0.217 C 
ATOM     14  N           0     129.109 132.413 132.538  0.00  0.00    -0.191 N 
ATOM     15  N           0     130.793 132.664 134.256  0.00  0.00    -0.183 N 
ATOM     16  C           0     131.128 131.235 134.395  0.00  0.00     0.150 C 
ATOM     17  C           0     131.923 130.900 133.110  0.00  0.00     0.093 C 
ATOM     18  C           0     131.490 131.973 132.078  0.00  0.00     0.209 C 
ATOM     19  H           0     130.271 135.612 135.350  0.00  0.00     0.178 HD
ATOM     20  H           0     128.752 135.541 132.061  0.00  0.00     0.178 HD
ATOM     21  H           0     128.747 131.527 132.699  0.00  0.00     0.180 HD
ENDROOT
BRANCH   6  22
ATOM     22  C           0     132.626 135.196 133.368  0.00  0.00     0.208 C 
BRANCH  22  23
ATOM     23  O           0     133.179 135.974 134.462  0.00  0.00    -0.302 OA
BRANCH  23  24
ATOM     24  C           0     133.771 135.352 135.499  0.00  0.00     0.360 C 
ATOM     25  N           0     133.555 135.785 136.757  0.00  0.00    -0.335 N 
ATOM     26  H           0     132.974 136.545 136.915  0.00  0.00     0.164 HD
ATOM     27  O           0     134.500 134.400 135.301  0.00  0.00    -0.239 OA
BRANCH  25  28
ATOM     28  C           0     134.199 135.107 137.885  0.00  0.00     0.144 C 
BRANCH  28  29
ATOM     29  C           0     133.269 135.144 139.100  0.00  0.00     0.142 C 
BRANCH  29  30
ATOM     30  N           0     133.832 134.318 140.171  0.00  0.00    -0.359 N 
ATOM     31  C           0     133.042 133.460 140.845  0.00  0.00     0.219 C 
ATOM     32  O           0     131.865 133.370 140.565  0.00  0.00    -0.274 OA
ATOM     33  H           0     134.773 134.389 140.395  0.00  0.00     0.162 HD
BRANCH  31  34
ATOM     34  C           0     133.620 132.609 141.947  0.00  0.00     0.123 C 
BRANCH  34  35
ATOM     35  C           0     134.800 133.339 142.591  0.00  0.00     0.144 C 
BRANCH  35  36
ATOM     36  N           0     134.354 134.002 143.818  0.00  0.00    -0.288 N 
ATOM     37  C           0     134.295 133.373 145.000  0.00  0.00     0.226 A 
ATOM     38  C           0     133.801 134.341 146.053  0.00  0.00     0.112 A 
ATOM     39  O           0     134.596 132.216 145.195  0.00  0.00    -0.273 OA
ATOM     40  C           0     133.573 135.647 145.265  0.00  0.00     0.112 A 
ATOM     41  C           0     133.968 135.283 143.851  0.00  0.00     0.226 A 
ATOM     42  O           0     133.939 136.032 142.898  0.00  0.00    -0.273 OA
ENDBRANCH  35  36
ENDBRANCH  34  35
ENDBRANCH  31  34
ENDBRANCH  29  30
ENDBRANCH  28  29
ENDBRANCH  25  28
ENDBRANCH  23  24
ENDBRANCH  22  23
ENDBRANCH   6  22
BRANCH  18  43
ATOM     43  O           0     130.869 131.356 130.949  0.00  0.00    -0.362 OA
ATOM     44  H           0     130.763 130.421 131.164  0.00  0.00     0.213 HD
ENDBRANCH  18  43
BRANCH  18  45
ATOM     45  O           0     132.615 132.751 131.666  0.00  0.00    -0.362 OA
ATOM     46  H           0     132.954 133.194 132.457  0.00  0.00     0.213 HD
ENDBRANCH  18  45
TORSDOF 11
ENDMDL
MODEL 8
REMARK VINA RESULT:      -7.9      5.240     10.746
REMARK  11 active torsions:
REMARK  status: ('A' for Active; 'I' for Inactive)
REMARK    1  A    between atoms: C_6  and  C_7 
REMARK    2  A    between atoms: C_7  and  O_8 
REMARK    3  A    between atoms: O_8  and  C_9 
REMARK       I    between atoms: C_9  and  N_10 
REMARK    4  A    between atoms: N_10  and  C_11 
REMARK    5  A    between atoms: C_11  and  C_12 
REMARK    6  A    between atoms: C_12  and  N_13 
REMARK       I    between atoms: N_13  and  C_14 
REMARK    7  A    between atoms: C_14  and  C_15 
REMARK    8  A    between atoms: C_15  and  C_16 
REMARK    9  A    between atoms: C_16  and  N_17 
REMARK   10  A    between atoms: C_37  and  O_38 
REMARK   11  A    between atoms: C_37  and  O_39 
ROOT
ATOM      1  N           0     134.747 132.227 146.660  0.00  0.00    -0.235 N 
ATOM      2  H           0     134.964 132.379 147.593  0.00  0.00     0.174 HD
ATOM      3  H           0     134.115 131.533 146.415  0.00  0.00     0.174 HD
ATOM      4  C           0     135.301 132.958 145.734  0.00  0.00     0.672 C 
ATOM      5  N           0     136.203 133.964 146.033  0.00  0.00    -0.218 N 
ATOM      6  C           0     137.217 134.301 145.037  0.00  0.00     0.151 C 
ATOM      7  C           0     136.626 134.556 143.664  0.00  0.00     0.180 C 
ATOM      8  N           0     136.007 135.898 143.642  0.00  0.00    -0.216 N 
ATOM      9  C           0     134.840 135.806 142.923  0.00  0.00     0.670 C 
ATOM     10  N           0     134.225 136.825 142.393  0.00  0.00    -0.235 N 
ATOM     11  H           0     134.588 137.718 142.495  0.00  0.00     0.174 HD
ATOM     12  H           0     133.402 136.689 141.896  0.00  0.00     0.174 HD
ATOM     13  C           0     135.484 133.622 143.296  0.00  0.00     0.217 C 
ATOM     14  N           0     134.404 134.508 142.832  0.00  0.00    -0.191 N 
ATOM     15  N           0     135.031 132.778 144.403  0.00  0.00    -0.183 N 
ATOM     16  C           0     134.281 131.677 143.772  0.00  0.00     0.150 C 
ATOM     17  C           0     135.083 131.353 142.489  0.00  0.00     0.093 C 
ATOM     18  C           0     135.878 132.646 142.174  0.00  0.00     0.209 C 
ATOM     19  H           0     136.163 134.433 146.881  0.00  0.00     0.178 HD
ATOM     20  H           0     136.359 136.699 144.060  0.00  0.00     0.178 HD
ATOM     21  H           0     133.533 134.223 142.513  0.00  0.00     0.180 HD
ENDROOT
BRANCH   6  22
ATOM     22  C           0     138.215 133.146 144.937  0.00  0.00     0.208 C 
BRANCH  22  23
ATOM     23  O           0     138.645 132.761 146.269  0.00  0.00    -0.302 OA
BRANCH  23  24
ATOM     24  C           0     139.811 132.109 146.438  0.00  0.00     0.360 C 
ATOM     25  N           0     139.842 130.763 146.401  0.00  0.00    -0.335 N 
ATOM     26  H           0     139.024 130.263 146.253  0.00  0.00     0.164 HD
ATOM     27  O           0     140.836 132.736 146.622  0.00  0.00    -0.239 OA
BRANCH  25  28
ATOM     28  C           0     141.110 130.054 146.583  0.00  0.00     0.144 C 
BRANCH  28  29
ATOM     29  C           0     141.110 129.348 147.941  0.00  0.00     0.142 C 
BRANCH  29  30
ATOM     30  N           0     139.770 128.824 148.219  0.00  0.00    -0.359 N 
ATOM     31  C           0     139.305 128.802 149.484  0.00  0.00     0.219 C 
ATOM     32  O           0     139.995 129.216 150.392  0.00  0.00    -0.274 OA
ATOM     33  H           0     139.218 128.494 147.493  0.00  0.00     0.162 HD
BRANCH  31  34
ATOM     34  C           0     137.927 128.264 149.771  0.00  0.00     0.123 C 
BRANCH  34  35
ATOM     35  C           0     136.896 129.381 149.600  0.00  0.00     0.144 C 
BRANCH  35  36
ATOM     36  N           0     135.904 128.982 148.598  0.00  0.00    -0.288 N 
ATOM     37  C           0     136.034 129.270 147.297  0.00  0.00     0.226 A 
ATOM     38  C           0     134.845 128.713 146.544  0.00  0.00     0.112 A 
ATOM     39  O           0     136.959 129.873 146.800  0.00  0.00    -0.273 OA
ATOM     40  C           0     133.993 128.056 147.650  0.00  0.00     0.112 A 
ATOM     41  C           0     134.792 128.306 148.909  0.00  0.00     0.226 A 
ATOM     42  O           0     134.475 127.950 150.025  0.00  0.00    -0.273 OA
ENDBRANCH  35  36
ENDBRANCH  34  35
ENDBRANCH  31  34
ENDBRANCH  29  30
ENDBRANCH  28  29
ENDBRANCH  25  28
ENDBRANCH  23  24
ENDBRANCH  22  23
ENDBRANCH   6  22
BRANCH  18  43
ATOM     43  O           0     135.499 133.166 140.898  0.00  0.00    -0.362 OA
ATOM     44  H           0     136.006 132.680 140.236  0.00  0.00     0.213 HD
ENDBRANCH  18  43
BRANCH  18  45
ATOM     45  O           0     137.283 132.389 142.210  0.00  0.00    -0.362 OA
ATOM     46  H           0     137.441 131.619 141.647  0.00  0.00     0.213 HD
ENDBRANCH  18  45
TORSDOF 11
ENDMDL
MODEL 9
REMARK VINA RESULT:      -7.9      1.457      3.170
REMARK  11 active torsions:
REMARK  status: ('A' for Active; 'I' for Inactive)
REMARK    1  A    between atoms: C_6  and  C_7 
REMARK    2  A    between atoms: C_7  and  O_8 
REMARK    3  A    between atoms: O_8  and  C_9 
REMARK       I    between atoms: C_9  and  N_10 
REMARK    4  A    between atoms: N_10  and  C_11 
REMARK    5  A    between atoms: C_11  and  C_12 
REMARK    6  A    between atoms: C_12  and  N_13 
REMARK       I    between atoms: N_13  and  C_14 
REMARK    7  A    between atoms: C_14  and  C_15 
REMARK    8  A    between atoms: C_15  and  C_16 
REMARK    9  A    between atoms: C_16  and  N_17 
REMARK   10  A    between atoms: C_37  and  O_38 
REMARK   11  A    between atoms: C_37  and  O_39 
ROOT
ATOM      1  N           0     134.767 130.666 145.556  0.00  0.00    -0.235 N 
ATOM      2  H           0     134.832 129.718 145.360  0.00  0.00     0.174 HD
ATOM      3  H           0     134.567 130.963 146.457  0.00  0.00     0.174 HD
ATOM      4  C           0     134.956 131.541 144.608  0.00  0.00     0.672 C 
ATOM      5  N           0     135.250 131.167 143.309  0.00  0.00    -0.218 N 
ATOM      6  C           0     134.845 132.057 142.225  0.00  0.00     0.151 C 
ATOM      7  C           0     135.295 133.489 142.443  0.00  0.00     0.180 C 
ATOM      8  N           0     136.737 133.597 142.135  0.00  0.00    -0.216 N 
ATOM      9  C           0     137.299 134.432 143.070  0.00  0.00     0.670 C 
ATOM     10  N           0     138.441 135.042 142.914  0.00  0.00    -0.235 N 
ATOM     11  H           0     138.950 134.917 142.097  0.00  0.00     0.174 HD
ATOM     12  H           0     138.782 135.619 143.615  0.00  0.00     0.174 HD
ATOM     13  C           0     135.194 133.957 143.887  0.00  0.00     0.217 C 
ATOM     14  N           0     136.510 134.546 144.186  0.00  0.00    -0.191 N 
ATOM     15  N           0     134.870 132.889 144.833  0.00  0.00    -0.183 N 
ATOM     16  C           0     134.383 133.576 146.043  0.00  0.00     0.150 C 
ATOM     17  C           0     133.551 134.763 145.502  0.00  0.00     0.093 C 
ATOM     18  C           0     134.093 135.015 144.072  0.00  0.00     0.209 C 
ATOM     19  H           0     135.715 130.336 143.124  0.00  0.00     0.178 HD
ATOM     20  H           0     137.202 133.158 141.406  0.00  0.00     0.178 HD
ATOM     21  H           0     136.773 134.950 145.028  0.00  0.00     0.180 HD
ENDROOT
BRANCH   6  22
ATOM     22  C           0     133.320 132.033 142.110  0.00  0.00     0.208 C 
BRANCH  22  23
ATOM     23  O           0     132.894 133.003 141.117  0.00  0.00    -0.302 OA
BRANCH  23  24
ATOM     24  C           0     131.669 132.908 140.565  0.00  0.00     0.360 C 
ATOM     25  N           0     131.542 132.717 139.237  0.00  0.00    -0.335 N 
ATOM     26  H           0     132.333 132.647 138.679  0.00  0.00     0.164 HD
ATOM     27  O           0     130.679 132.995 141.264  0.00  0.00    -0.239 OA
BRANCH  25  28
ATOM     28  C           0     130.210 132.613 138.636  0.00  0.00     0.144 C 
BRANCH  28  29
ATOM     29  C           0     130.317 131.922 137.275  0.00  0.00     0.142 C 
BRANCH  29  30
ATOM     30  N           0     130.802 132.880 136.278  0.00  0.00    -0.359 N 
ATOM     31  C           0     130.903 132.513 134.986  0.00  0.00     0.219 C 
ATOM     32  O           0     130.593 131.391 134.647  0.00  0.00    -0.274 OA
ATOM     33  H           0     131.050 133.778 136.549  0.00  0.00     0.162 HD
BRANCH  31  34
ATOM     34  C           0     131.401 133.498 133.959  0.00  0.00     0.123 C 
BRANCH  34  35
ATOM     35  C           0     131.530 134.882 134.599  0.00  0.00     0.144 C 
BRANCH  35  36
ATOM     36  N           0     132.940 135.159 134.885  0.00  0.00    -0.288 N 
ATOM     37  C           0     133.810 135.536 133.939  0.00  0.00     0.226 A 
ATOM     38  C           0     135.170 135.744 134.570  0.00  0.00     0.112 A 
ATOM     39  O           0     133.548 135.693 132.767  0.00  0.00    -0.273 OA
ATOM     40  C           0     134.934 135.408 136.056  0.00  0.00     0.112 A 
ATOM     41  C           0     133.465 135.052 136.111  0.00  0.00     0.226 A 
ATOM     42  O           0     132.859 134.721 137.108  0.00  0.00    -0.273 OA
ENDBRANCH  35  36
ENDBRANCH  34  35
ENDBRANCH  31  34
ENDBRANCH  29  30
ENDBRANCH  28  29
ENDBRANCH  25  28
ENDBRANCH  23  24
ENDBRANCH  22  23
ENDBRANCH   6  22
BRANCH  18  43
ATOM     43  O           0     134.638 136.333 143.970  0.00  0.00    -0.362 OA
ATOM     44  H           0     135.169 136.354 143.164  0.00  0.00     0.213 HD
ENDBRANCH  18  43
BRANCH  18  45
ATOM     45  O           0     133.057 134.828 143.106  0.00  0.00    -0.362 OA
ATOM     46  H           0     132.791 133.900 143.157  0.00  0.00     0.213 HD
ENDBRANCH  18  45
TORSDOF 11
ENDMDL
