# created with PyMOL 2.3.4
@<TRIPOS>MOLECULE
ligand_out_0001
46 49 1                 
SMALL
USER_CHARGES
@<TRIPOS>ATOM
1	   N	137.658	134.959	142.971	N.3	1	UNK0	-0.235	
2	   N	135.343	135.369	143.031	N.3	1	UNK0	-0.218	
3	   N	133.227	134.293	144.995	N.3	1	UNK0	-0.216	
4	   N	133.252	133.612	147.260	N.3	1	UNK0	-0.235	
5	   N	134.815	132.817	145.673	N.3	1	UNK0	-0.191	
6	   N	136.182	133.313	143.740	N.3	1	UNK0	-0.183	
7	   N	131.543	133.262	139.139	N.pl3	1	UNK0	-0.335	
8	   N	130.435	132.767	136.513	N.pl3	1	UNK0	-0.359	
9	   N	132.688	135.281	135.001	N.pl3	1	UNK0	-0.288	
10	   C	136.446	134.560	143.239	C.3	1	UNK0	0.672	
11	   C	134.062	134.730	142.743	C.3	1	UNK0	0.151	
12	   C	133.705	133.654	143.750	C.3	1	UNK0	0.180	
13	   C	133.736	133.576	146.051	C.3	1	UNK0	0.670	
14	   C	134.887	132.811	144.203	C.3	1	UNK0	0.217	
15	   C	137.111	132.176	143.875	C.3	1	UNK0	0.150	
16	   C	136.272	130.944	143.459	C.3	1	UNK0	0.093	
17	   C	134.798	131.368	143.680	C.3	1	UNK0	0.209	
18	   C	134.125	134.100	141.351	C.2	1	UNK0	0.208	
19	   C	131.983	133.494	140.392	C.2	1	UNK0	0.360	
20	   C	130.523	132.238	138.899	C.3	1	UNK0	0.144	
21	   C	130.674	131.691	137.478	C.3	1	UNK0	0.142	
22	   C	131.061	132.751	135.319	C.2	1	UNK0	0.219	
23	   C	130.816	133.858	134.326	C.3	1	UNK0	0.123	
24	   C	131.227	135.197	134.940	C.3	1	UNK0	0.144	
25	   C	133.375	135.126	136.140	C.2	1	UNK0	0.226	
26	   C	134.854	135.267	135.851	C.3	1	UNK0	0.112	
27	   C	134.901	135.543	134.334	C.3	1	UNK0	0.112	
28	   C	133.445	135.523	133.924	C.2	1	UNK0	0.226	
29	   O	132.921	134.435	140.612	O.2	1	UNK0	-0.302	
30	   O	131.534	132.854	141.322	O.co2	1	UNK0	-0.239	
31	   O	131.820	131.847	135.044	O.2	1	UNK0	-0.274	
32	   O	132.890	134.901	137.227	O.2	1	UNK0	-0.273	
33	   O	133.030	135.699	132.799	O.2	1	UNK0	-0.273	
34	   O	134.175	130.519	144.647	O.2	1	UNK0	-0.362	
35	   O	134.078	131.330	142.446	O.2	1	UNK0	-0.362	
36	   H	137.809	135.848	142.613	 H	1	UNK0	0.174	
37	   H	138.409	134.367	143.133	 H	1	UNK0	0.174	
38	   H	132.485	134.171	147.460	 H	1	UNK0	0.174	
39	   H	133.660	133.080	147.962	 H	1	UNK0	0.174	
40	   H	135.418	136.335	143.076	 H	1	UNK0	0.178	
41	   H	132.658	135.075	145.056	 H	1	UNK0	0.178	
42	   H	135.424	132.359	146.274	 H	1	UNK0	0.180	
43	   H	131.902	133.772	138.397	 H	1	UNK0	0.164	
44	   H	129.828	133.490	136.733	 H	1	UNK0	0.162	
45	   H	134.873	129.972	145.029	 H	1	UNK0	0.213	
46	   H	133.567	132.150	142.395	 H	1	UNK0	0.213	
@<TRIPOS>BOND
1 1 10 1
2 1 36 1
3 1 37 1
4 2 11 1
5 2 40 1
6 3 13 1
7 3 41 1
8 4 38 1
9 4 39 1
10 5 42 1
11 6 15 1
12 7 20 1
13 7 43 1
14 8 22 1
15 8 44 1
16 9 25 1
17 9 28 1
18 2 10 1
19 6 10 1
20 11 12 1
21 11 18 1
22 3 12 1
23 12 14 1
24 4 13 1
25 5 13 1
26 5 14 1
27 6 14 1
28 14 17 1
29 15 16 1
30 16 17 1
31 17 34 2
32 17 35 2
33 18 29 2
34 7 19 1
35 19 30 2
36 20 21 1
37 8 21 1
38 22 23 1
39 22 31 2
40 23 24 1
41 9 24 1
42 25 26 1
43 25 32 2
44 26 27 1
45 27 28 1
46 28 33 2
47 19 29 2
48 34 45 1
49 35 46 1
@<TRIPOS>SUBSTRUCTURE
1	UNK0	1	GROUP	1 ****	UNK
