# created with PyMOL 2.3.4
@<TRIPOS>MOLECULE
ligand_out_0001
32 35 1                 
SMALL
USER_CHARGES
@<TRIPOS>ATOM
1	   N	134.398	136.180	142.205	N.3	1	UNK0	-0.235	
2	   N	134.217	134.094	143.269	N.pl3	1	UNK0	-0.200	
3	   N	135.833	135.656	143.995	N.3	1	UNK0	-0.211	
4	   C	134.798	135.343	143.120	C.3	1	UNK0	0.670	
5	   C	135.105	132.946	143.520	C.2	1	UNK0	0.244	
6	   C	136.059	133.315	144.661	C.3	1	UNK0	0.101	
7	   C	136.800	134.605	144.287	C.3	1	UNK0	0.119	
8	   C	137.652	134.316	143.043	C.2	1	UNK0	0.243	
9	   C	137.078	132.200	144.886	C.2	1	UNK0	0.177	
10	   C	138.611	133.183	143.425	C.3	1	UNK0	0.311	
11	   C	137.985	132.595	146.060	C.3	1	UNK0	0.134	
12	   C	138.741	133.873	145.650	C.2	1	UNK0	0.198	
13	   C	137.739	135.000	145.426	C.2	1	UNK0	0.182	
14	   C	138.975	131.466	146.353	C.2	1	UNK0	0.207	
15	   O	137.886	132.003	143.731	O.2	1	UNK0	-0.322	
16	   O	139.478	133.606	144.461	O.2	1	UNK0	-0.319	
17	   O	137.191	132.857	147.219	O.2	1	UNK0	-0.382	
18	   O	138.330	130.206	146.160	O.2	1	UNK0	-0.398	
19	   O	138.435	136.198	145.079	O.2	1	UNK0	-0.390	
20	   O	134.327	131.807	143.894	O.2	1	UNK0	-0.376	
21	   O	139.430	132.906	142.287	O.2	1	UNK0	-0.341	
22	   O	136.814	133.907	141.960	O.2	1	UNK0	-0.385	
23	   H	133.676	135.934	141.605	 H	1	UNK0	0.174	
24	   H	134.820	137.049	142.125	 H	1	UNK0	0.174	
25	   H	133.256	133.979	143.210	 H	1	UNK0	0.180	
26	   H	135.903	136.536	144.396	 H	1	UNK0	0.178	
27	   H	137.585	132.357	147.947	 H	1	UNK0	0.210	
28	   H	138.233	129.804	147.035	 H	1	UNK0	0.209	
29	   H	137.867	136.684	144.466	 H	1	UNK0	0.210	
30	   H	134.916	131.040	143.851	 H	1	UNK0	0.212	
31	   H	139.285	133.624	141.657	 H	1	UNK0	0.215	
32	   H	137.312	134.062	141.146	 H	1	UNK0	0.210	
@<TRIPOS>BOND
1 1 4 1
2 1 23 1
3 1 24 1
4 2 5 1
5 2 25 1
6 3 26 1
7 2 4 1
8 3 4 1
9 5 6 1
10 5 20 2
11 6 7 1
12 6 9 1
13 3 7 1
14 7 8 1
15 7 13 1
16 8 10 1
17 8 22 2
18 9 11 1
19 9 15 2
20 10 16 2
21 10 21 2
22 11 12 1
23 11 14 1
24 11 17 2
25 12 13 1
26 13 19 2
27 14 18 2
28 10 15 2
29 12 16 2
30 17 27 1
31 18 28 1
32 19 29 1
33 20 30 1
34 21 31 1
35 22 32 1
@<TRIPOS>SUBSTRUCTURE
1	UNK0	1	GROUP	1 ****	UNK
