# created with PyMOL 2.3.4
@<TRIPOS>MOLECULE
ligand_out_0001
49 54 1                 
SMALL
USER_CHARGES
@<TRIPOS>ATOM
1	   N	137.650	135.468	147.868	N.3	1	UNK0	-0.235	
2	   N	135.570	134.703	147.000	N.3	1	UNK0	-0.211	
3	   N	135.369	133.269	144.491	N.pl3	1	UNK0	-0.185	
4	   N	137.572	132.968	144.815	N.3	1	UNK0	-0.191	
5	   N	137.309	133.211	147.181	N.3	1	UNK0	-0.180	
6	   N	135.231	131.579	148.364	N.pl3	1	UNK0	-0.219	
7	   N	133.983	135.231	141.208	N.pl3	1	UNK0	-0.213	
8	   N	136.868	134.038	142.824	N.3	1	UNK0	-0.235	
9	   C	136.907	134.521	147.365	C.3	1	UNK0	0.672	
10	   C	134.768	133.485	146.820	C.3	1	UNK0	0.221	
11	   C	135.447	132.589	145.788	C.3	1	UNK0	0.192	
12	   C	136.620	133.460	143.972	C.3	1	UNK0	0.674	
13	   C	136.934	132.408	146.013	C.3	1	UNK0	0.221	
14	   C	138.129	132.390	148.069	C.3	1	UNK0	0.190	
15	   C	137.914	130.922	147.689	C.3	1	UNK0	0.161	
16	   C	137.026	130.068	148.584	C.3	1	UNK0	0.075	
17	   C	136.042	130.905	149.401	C.3	1	UNK0	0.129	
18	   C	134.962	130.009	150.028	C.3	1	UNK0	0.061	
19	   C	133.957	129.780	148.886	C.2	1	UNK0	0.210	
20	   C	135.215	132.897	148.135	C.2	1	UNK0	0.269	
21	   C	137.369	130.958	146.260	C.3	1	UNK0	0.244	
22	   C	134.119	133.684	143.837	C.2	1	UNK0	0.325	
23	   C	133.517	134.003	141.510	C.2	1	UNK0	0.386	
24	   C	135.537	128.687	150.526	C.2	1	UNK0	0.173	
25	   O	134.454	130.550	147.771	O.2	1	UNK0	-0.274	
26	   O	135.514	133.633	149.058	O.2	1	UNK0	-0.269	
27	   O	134.135	133.260	142.448	O.2	1	UNK0	-0.282	
28	   O	132.539	133.566	140.936	O.co2	1	UNK0	-0.236	
29	   O	133.334	136.011	140.221	O.3	1	UNK0	-0.285	
30	   O	136.293	130.051	146.066	O.2	1	UNK0	-0.360	
31	   O	138.429	130.631	145.345	O.2	1	UNK0	-0.360	
32	   O	139.211	130.301	147.641	O.2	1	UNK0	-0.245	
33	   O	140.337	128.223	148.266	O.3	1	UNK0	-0.579	
34	   O	138.961	129.352	149.880	O.3	1	UNK0	-0.579	
35	   O	137.908	128.213	147.992	O.3	1	UNK0	-0.274	
36	   O	135.175	127.641	149.624	O.2	1	UNK0	-0.400	
37	   S	139.114	129.018	148.455	S.3	1	UNK0	0.241	
38	   H	137.279	136.353	148.005	 H	1	UNK0	0.174	
39	   H	138.572	135.285	148.108	 H	1	UNK0	0.174	
40	   H	135.193	135.602	146.873	 H	1	UNK0	0.178	
41	   H	138.531	132.983	144.657	 H	1	UNK0	0.180	
42	   H	134.764	135.580	141.666	 H	1	UNK0	0.199	
43	   H	132.466	136.248	140.579	 H	1	UNK0	0.244	
44	   H	136.589	134.955	142.673	 H	1	UNK0	0.174	
45	   H	137.329	133.550	142.125	 H	1	UNK0	0.174	
46	   H	136.112	130.032	145.117	 H	1	UNK0	0.213	
47	   H	138.987	131.417	145.271	 H	1	UNK0	0.213	
48	   H	137.123	128.727	148.220	 H	1	UNK0	0.234	
49	   H	134.340	127.903	149.212	 H	1	UNK0	0.209	
@<TRIPOS>BOND
1 1 9 1
2 1 38 1
3 1 39 1
4 2 10 1
5 2 40 1
6 3 12 1
7 3 22 1
8 4 41 1
9 5 14 1
10 6 20 1
11 7 29 1
12 7 42 1
13 8 44 1
14 8 45 1
15 2 9 1
16 5 9 1
17 10 11 1
18 10 20 1
19 3 11 1
20 11 13 1
21 4 12 1
22 8 12 1
23 4 13 1
24 5 13 1
25 13 21 1
26 14 15 1
27 15 16 1
28 15 21 1
29 15 32 2
30 16 17 1
31 16 48 1
32 6 17 1
33 17 18 1
34 18 19 1
35 18 24 1
36 19 25 2
37 20 26 2
38 21 30 2
39 21 31 2
40 22 27 2
41 7 23 1
42 23 28 2
43 24 36 2
44 6 25 1
45 23 27 2
46 29 43 1
47 30 46 1
48 31 47 1
49 32 37 1
50 35 48 1
51 36 49 1
52 33 37 1
53 34 37 1
54 35 37 1
@<TRIPOS>SUBSTRUCTURE
1	UNK0	1	GROUP	1 ****	UNK
