MODEL 1
REMARK VINA RESULT:      -7.3      0.000      0.000
REMARK  5 active torsions:
REMARK  status: ('A' for Active; 'I' for Inactive)
REMARK    1  A    between atoms: C_6  and  C_7 
REMARK    2  A    between atoms: C_7  and  O_8 
REMARK    3  A    between atoms: O_8  and  C_9 
REMARK    4  A    between atoms: C_23  and  O_24 
REMARK    5  A    between atoms: C_23  and  O_25 
ROOT
ATOM      1  N           0     134.891 136.700 143.084  0.00  0.00    -0.235 N 
ATOM      2  H           0     134.084 137.160 142.806  0.00  0.00     0.174 HD
ATOM      3  H           0     135.698 137.205 143.268  0.00  0.00     0.174 HD
ATOM      4  C           0     134.889 135.403 143.217  0.00  0.00     0.672 C 
ATOM      5  N           0     133.761 134.639 142.973  0.00  0.00    -0.218 N 
ATOM      6  C           0     133.943 133.261 142.531  0.00  0.00     0.151 C 
ATOM      7  C           0     134.888 132.479 143.423  0.00  0.00     0.180 C 
ATOM      8  N           0     134.181 132.099 144.664  0.00  0.00    -0.216 N 
ATOM      9  C           0     135.066 132.242 145.705  0.00  0.00     0.670 C 
ATOM     10  N           0     134.926 131.671 146.869  0.00  0.00    -0.235 N 
ATOM     11  H           0     134.158 131.102 147.041  0.00  0.00     0.174 HD
ATOM     12  H           0     135.589 131.813 147.562  0.00  0.00     0.174 HD
ATOM     13  C           0     136.083 133.280 143.915  0.00  0.00     0.217 C 
ATOM     14  N           0     136.115 133.060 145.370  0.00  0.00    -0.191 N 
ATOM     15  N           0     136.006 134.708 143.603  0.00  0.00    -0.183 N 
ATOM     16  C           0     137.385 135.211 143.734  0.00  0.00     0.150 C 
ATOM     17  C           0     138.264 134.075 143.160  0.00  0.00     0.093 C 
ATOM     18  C           0     137.399 132.795 143.283  0.00  0.00     0.209 C 
ATOM     19  H           0     132.873 135.011 143.095  0.00  0.00     0.178 HD
ATOM     20  H           0     133.259 131.802 144.732  0.00  0.00     0.178 HD
ATOM     21  H           0     136.768 133.427 145.985  0.00  0.00     0.180 HD
ENDROOT
BRANCH   6  22
ATOM     22  C           0     134.503 133.268 141.107  0.00  0.00     0.206 C 
BRANCH  22  23
ATOM     23  O           0     133.449 133.620 140.174  0.00  0.00    -0.320 OA
BRANCH  23  24
ATOM     24  C           0     133.418 134.844 139.625  0.00  0.00     0.254 C 
ATOM     25  C           0     133.636 135.013 138.144  0.00  0.00     0.126 C 
ATOM     26  O           0     133.217 135.813 140.320  0.00  0.00    -0.266 OA
ENDBRANCH  23  24
ENDBRANCH  22  23
ENDBRANCH   6  22
BRANCH  18  27
ATOM     27  O           0     138.041 131.839 144.128  0.00  0.00    -0.362 OA
ATOM     28  H           0     137.461 131.706 144.890  0.00  0.00     0.213 HD
ENDBRANCH  18  27
BRANCH  18  29
ATOM     29  O           0     137.153 132.234 141.992  0.00  0.00    -0.362 OA
ATOM     30  H           0     137.791 132.636 141.387  0.00  0.00     0.213 HD
ENDBRANCH  18  29
TORSDOF 5
ENDMDL
MODEL 2
REMARK VINA RESULT:      -7.2      2.041      5.767
REMARK  5 active torsions:
REMARK  status: ('A' for Active; 'I' for Inactive)
REMARK    1  A    between atoms: C_6  and  C_7 
REMARK    2  A    between atoms: C_7  and  O_8 
REMARK    3  A    between atoms: O_8  and  C_9 
REMARK    4  A    between atoms: C_23  and  O_24 
REMARK    5  A    between atoms: C_23  and  O_25 
ROOT
ATOM      1  N           0     134.938 131.955 146.704  0.00  0.00    -0.235 N 
ATOM      2  H           0     135.190 132.041 147.637  0.00  0.00     0.174 HD
ATOM      3  H           0     134.269 131.304 146.441  0.00  0.00     0.174 HD
ATOM      4  C           0     135.494 132.719 145.807  0.00  0.00     0.672 C 
ATOM      5  N           0     136.448 133.667 146.134  0.00  0.00    -0.218 N 
ATOM      6  C           0     137.443 134.023 145.128  0.00  0.00     0.151 C 
ATOM      7  C           0     136.822 134.385 143.792  0.00  0.00     0.180 C 
ATOM      8  N           0     136.260 135.750 143.872  0.00  0.00    -0.216 N 
ATOM      9  C           0     135.069 135.750 143.189  0.00  0.00     0.670 C 
ATOM     10  N           0     134.480 136.824 142.741  0.00  0.00    -0.235 N 
ATOM     11  H           0     134.885 137.694 142.884  0.00  0.00     0.174 HD
ATOM     12  H           0     133.640 136.753 142.265  0.00  0.00     0.174 HD
ATOM     13  C           0     135.629 133.523 143.408  0.00  0.00     0.217 C 
ATOM     14  N           0     134.574 134.479 143.034  0.00  0.00    -0.191 N 
ATOM     15  N           0     135.175 132.632 144.477  0.00  0.00    -0.183 N 
ATOM     16  C           0     134.361 131.603 143.806  0.00  0.00     0.150 C 
ATOM     17  C           0     135.108 131.327 142.480  0.00  0.00     0.093 C 
ATOM     18  C           0     135.947 132.603 142.216  0.00  0.00     0.209 C 
ATOM     19  H           0     136.454 134.085 147.010  0.00  0.00     0.178 HD
ATOM     20  H           0     136.661 136.510 144.326  0.00  0.00     0.178 HD
ATOM     21  H           0     133.683 134.250 142.729  0.00  0.00     0.180 HD
ENDROOT
BRANCH   6  22
ATOM     22  C           0     138.387 132.836 144.925  0.00  0.00     0.206 C 
BRANCH  22  23
ATOM     23  O           0     138.934 132.428 146.206  0.00  0.00    -0.320 OA
BRANCH  23  24
ATOM     24  C           0     140.253 132.522 146.434  0.00  0.00     0.254 C 
ATOM     25  C           0     140.754 133.086 147.739  0.00  0.00     0.126 C 
ATOM     26  O           0     141.039 132.157 145.592  0.00  0.00    -0.266 OA
ENDBRANCH  23  24
ENDBRANCH  22  23
ENDBRANCH   6  22
BRANCH  18  27
ATOM     27  O           0     135.551 133.215 140.988  0.00  0.00    -0.362 OA
ATOM     28  H           0     134.585 133.247 140.990  0.00  0.00     0.213 HD
ENDBRANCH  18  27
BRANCH  18  29
ATOM     29  O           0     137.340 132.286 142.191  0.00  0.00    -0.362 OA
ATOM     30  H           0     137.408 131.322 142.212  0.00  0.00     0.213 HD
ENDBRANCH  18  29
TORSDOF 5
ENDMDL
MODEL 3
REMARK VINA RESULT:      -6.6      2.836      4.858
REMARK  5 active torsions:
REMARK  status: ('A' for Active; 'I' for Inactive)
REMARK    1  A    between atoms: C_6  and  C_7 
REMARK    2  A    between atoms: C_7  and  O_8 
REMARK    3  A    between atoms: O_8  and  C_9 
REMARK    4  A    between atoms: C_23  and  O_24 
REMARK    5  A    between atoms: C_23  and  O_25 
ROOT
ATOM      1  N           0     139.674 130.563 146.052  0.00  0.00    -0.235 N 
ATOM      2  H           0     140.429 130.711 145.461  0.00  0.00     0.174 HD
ATOM      3  H           0     139.709 129.856 146.715  0.00  0.00     0.174 HD
ATOM      4  C           0     138.617 131.320 145.961  0.00  0.00     0.672 C 
ATOM      5  N           0     138.523 132.346 145.037  0.00  0.00    -0.218 N 
ATOM      6  C           0     137.199 132.721 144.552  0.00  0.00     0.151 C 
ATOM      7  C           0     136.214 132.976 145.678  0.00  0.00     0.180 C 
ATOM      8  N           0     136.488 134.301 146.272  0.00  0.00    -0.216 N 
ATOM      9  C           0     136.333 134.185 147.632  0.00  0.00     0.670 C 
ATOM     10  N           0     136.138 135.194 148.436  0.00  0.00    -0.235 N 
ATOM     11  H           0     136.095 136.096 148.081  0.00  0.00     0.174 HD
ATOM     12  H           0     136.036 135.042 149.388  0.00  0.00     0.174 HD
ATOM     13  C           0     136.349 132.016 146.850  0.00  0.00     0.217 C 
ATOM     14  N           0     136.409 132.877 148.041  0.00  0.00    -0.191 N 
ATOM     15  N           0     137.525 131.148 146.770  0.00  0.00    -0.183 N 
ATOM     16  C           0     137.249 130.034 147.695  0.00  0.00     0.150 C 
ATOM     17  C           0     135.740 129.747 147.511  0.00  0.00     0.093 C 
ATOM     18  C           0     135.144 131.064 146.953  0.00  0.00     0.209 C 
ATOM     19  H           0     139.318 132.805 144.720  0.00  0.00     0.178 HD
ATOM     20  H           0     136.732 135.107 145.790  0.00  0.00     0.178 HD
ATOM     21  H           0     136.486 132.573 148.959  0.00  0.00     0.180 HD
ENDROOT
BRANCH   6  22
ATOM     22  C           0     136.658 131.595 143.671  0.00  0.00     0.206 C 
BRANCH  22  23
ATOM     23  O           0     135.941 132.163 142.543  0.00  0.00    -0.320 OA
BRANCH  23  24
ATOM     24  C           0     134.599 132.146 142.523  0.00  0.00     0.254 C 
ATOM     25  C           0     133.830 133.439 142.442  0.00  0.00     0.126 C 
ATOM     26  O           0     134.008 131.093 142.571  0.00  0.00    -0.266 OA
ENDBRANCH  23  24
ENDBRANCH  22  23
ENDBRANCH   6  22
BRANCH  18  27
ATOM     27  O           0     134.165 131.588 147.850  0.00  0.00    -0.362 OA
ATOM     28  H           0     133.675 130.832 148.202  0.00  0.00     0.213 HD
ENDBRANCH  18  27
BRANCH  18  29
ATOM     29  O           0     134.573 130.844 145.662  0.00  0.00    -0.362 OA
ATOM     30  H           0     135.188 130.276 145.178  0.00  0.00     0.213 HD
ENDBRANCH  18  29
TORSDOF 5
ENDMDL
MODEL 4
REMARK VINA RESULT:      -6.4      6.937      9.577
REMARK  5 active torsions:
REMARK  status: ('A' for Active; 'I' for Inactive)
REMARK    1  A    between atoms: C_6  and  C_7 
REMARK    2  A    between atoms: C_7  and  O_8 
REMARK    3  A    between atoms: O_8  and  C_9 
REMARK    4  A    between atoms: C_23  and  O_24 
REMARK    5  A    between atoms: C_23  and  O_25 
ROOT
ATOM      1  N           0     132.233 137.248 132.390  0.00  0.00    -0.235 N 
ATOM      2  H           0     131.471 137.839 132.283  0.00  0.00     0.174 HD
ATOM      3  H           0     132.978 137.301 131.771  0.00  0.00     0.174 HD
ATOM      4  C           0     132.258 136.388 133.369  0.00  0.00     0.672 C 
ATOM      5  N           0     131.222 136.280 134.281  0.00  0.00    -0.218 N 
ATOM      6  C           0     130.992 134.986 134.916  0.00  0.00     0.151 C 
ATOM      7  C           0     132.252 134.400 135.524  0.00  0.00     0.180 C 
ATOM      8  N           0     132.544 135.092 136.798  0.00  0.00    -0.216 N 
ATOM      9  C           0     133.904 135.271 136.871  0.00  0.00     0.670 C 
ATOM     10  N           0     134.553 135.508 137.976  0.00  0.00    -0.235 N 
ATOM     11  H           0     134.073 135.566 138.818  0.00  0.00     0.174 HD
ATOM     12  H           0     135.515 135.624 137.958  0.00  0.00     0.174 HD
ATOM     13  C           0     133.506 134.625 134.692  0.00  0.00     0.217 C 
ATOM     14  N           0     134.495 135.171 135.636  0.00  0.00    -0.191 N 
ATOM     15  N           0     133.309 135.530 133.559  0.00  0.00    -0.183 N 
ATOM     16  C           0     134.442 135.272 132.653  0.00  0.00     0.150 C 
ATOM     17  C           0     134.652 133.741 132.728  0.00  0.00     0.093 C 
ATOM     18  C           0     134.033 133.314 134.082  0.00  0.00     0.209 C 
ATOM     19  H           0     130.664 137.045 134.494  0.00  0.00     0.178 HD
ATOM     20  H           0     131.893 135.369 137.462  0.00  0.00     0.178 HD
ATOM     21  H           0     135.409 135.415 135.423  0.00  0.00     0.180 HD
ENDROOT
BRANCH   6  22
ATOM     22  C           0     130.453 134.011 133.868  0.00  0.00     0.206 C 
BRANCH  22  23
ATOM     23  O           0     129.212 134.526 133.320  0.00  0.00    -0.320 OA
BRANCH  23  24
ATOM     24  C           0     129.067 134.659 131.993  0.00  0.00     0.254 C 
ATOM     25  C           0     128.154 133.729 131.236  0.00  0.00     0.126 C 
ATOM     26  O           0     129.671 135.524 131.403  0.00  0.00    -0.266 OA
ENDBRANCH  23  24
ENDBRANCH  22  23
ENDBRANCH   6  22
BRANCH  18  27
ATOM     27  O           0     135.028 132.732 134.925  0.00  0.00    -0.362 OA
ATOM     28  H           0     135.277 131.889 134.522  0.00  0.00     0.213 HD
ENDBRANCH  18  27
BRANCH  18  29
ATOM     29  O           0     132.957 132.398 133.872  0.00  0.00    -0.362 OA
ATOM     30  H           0     132.955 131.792 134.626  0.00  0.00     0.213 HD
ENDBRANCH  18  29
TORSDOF 5
ENDMDL
MODEL 5
REMARK VINA RESULT:      -6.3      8.063     10.406
REMARK  5 active torsions:
REMARK  status: ('A' for Active; 'I' for Inactive)
REMARK    1  A    between atoms: C_6  and  C_7 
REMARK    2  A    between atoms: C_7  and  O_8 
REMARK    3  A    between atoms: O_8  and  C_9 
REMARK    4  A    between atoms: C_23  and  O_24 
REMARK    5  A    between atoms: C_23  and  O_25 
ROOT
ATOM      1  N           0     128.847 134.356 132.102  0.00  0.00    -0.235 N 
ATOM      2  H           0     128.125 133.966 131.585  0.00  0.00     0.174 HD
ATOM      3  H           0     129.012 135.310 132.060  0.00  0.00     0.174 HD
ATOM      4  C           0     129.589 133.598 132.859  0.00  0.00     0.672 C 
ATOM      5  N           0     129.388 132.232 132.957  0.00  0.00    -0.218 N 
ATOM      6  C           0     130.536 131.385 133.266  0.00  0.00     0.151 C 
ATOM      7  C           0     131.305 131.862 134.484  0.00  0.00     0.180 C 
ATOM      8  N           0     130.563 131.485 135.706  0.00  0.00    -0.216 N 
ATOM      9  C           0     130.663 132.530 136.591  0.00  0.00     0.670 C 
ATOM     10  N           0     130.455 132.426 137.874  0.00  0.00    -0.235 N 
ATOM     11  H           0     130.214 131.568 138.258  0.00  0.00     0.174 HD
ATOM     12  H           0     130.543 133.205 138.444  0.00  0.00     0.174 HD
ATOM     13  C           0     131.430 133.375 134.586  0.00  0.00     0.217 C 
ATOM     14  N           0     131.008 133.699 135.958  0.00  0.00    -0.191 N 
ATOM     15  N           0     130.623 134.102 133.604  0.00  0.00    -0.183 N 
ATOM     16  C           0     131.200 135.456 133.553  0.00  0.00     0.150 C 
ATOM     17  C           0     132.726 135.228 133.670  0.00  0.00     0.093 C 
ATOM     18  C           0     132.876 133.848 134.358  0.00  0.00     0.209 C 
ATOM     19  H           0     128.507 131.848 132.825  0.00  0.00     0.178 HD
ATOM     20  H           0     130.092 130.650 135.855  0.00  0.00     0.178 HD
ATOM     21  H           0     130.981 134.585 136.350  0.00  0.00     0.180 HD
ENDROOT
BRANCH   6  22
ATOM     22  C           0     131.479 131.372 132.062  0.00  0.00     0.206 C 
BRANCH  22  23
ATOM     23  O           0     132.585 130.469 132.323  0.00  0.00    -0.320 OA
BRANCH  23  24
ATOM     24  C           0     132.390 129.142 132.292  0.00  0.00     0.254 C 
ATOM     25  C           0     131.773 128.498 131.077  0.00  0.00     0.126 C 
ATOM     26  O           0     132.707 128.462 133.240  0.00  0.00    -0.266 OA
ENDBRANCH  23  24
ENDBRANCH  22  23
ENDBRANCH   6  22
BRANCH  18  27
ATOM     27  O           0     133.563 133.983 135.602  0.00  0.00    -0.362 OA
ATOM     28  H           0     133.622 133.098 135.986  0.00  0.00     0.213 HD
ENDBRANCH  18  27
BRANCH  18  29
ATOM     29  O           0     133.567 132.937 133.501  0.00  0.00    -0.362 OA
ATOM     30  H           0     134.111 132.376 134.070  0.00  0.00     0.213 HD
ENDBRANCH  18  29
TORSDOF 5
ENDMDL
MODEL 6
REMARK VINA RESULT:      -6.2      2.821      5.790
REMARK  5 active torsions:
REMARK  status: ('A' for Active; 'I' for Inactive)
REMARK    1  A    between atoms: C_6  and  C_7 
REMARK    2  A    between atoms: C_7  and  O_8 
REMARK    3  A    between atoms: O_8  and  C_9 
REMARK    4  A    between atoms: C_23  and  O_24 
REMARK    5  A    between atoms: C_23  and  O_25 
ROOT
ATOM      1  N           0     138.808 130.759 145.500  0.00  0.00    -0.235 N 
ATOM      2  H           0     138.932 130.069 146.171  0.00  0.00     0.174 HD
ATOM      3  H           0     139.559 131.050 144.960  0.00  0.00     0.174 HD
ATOM      4  C           0     137.632 131.291 145.321  0.00  0.00     0.672 C 
ATOM      5  N           0     136.528 130.904 146.063  0.00  0.00    -0.218 N 
ATOM      6  C           0     135.467 131.882 146.283  0.00  0.00     0.151 C 
ATOM      7  C           0     134.997 132.536 144.998  0.00  0.00     0.180 C 
ATOM      8  N           0     134.123 131.595 144.265  0.00  0.00    -0.216 N 
ATOM      9  C           0     134.419 131.708 142.929  0.00  0.00     0.670 C 
ATOM     10  N           0     133.628 131.319 141.968  0.00  0.00    -0.235 N 
ATOM     11  H           0     132.769 130.920 142.179  0.00  0.00     0.174 HD
ATOM     12  H           0     133.898 131.429 141.044  0.00  0.00     0.174 HD
ATOM     13  C           0     136.114 132.839 144.010  0.00  0.00     0.217 C 
ATOM     14  N           0     135.650 132.282 142.729  0.00  0.00    -0.191 N 
ATOM     15  N           0     137.408 132.271 144.390  0.00  0.00    -0.183 N 
ATOM     16  C           0     138.407 133.019 143.606  0.00  0.00     0.150 C 
ATOM     17  C           0     137.879 134.473 143.599  0.00  0.00     0.093 C 
ATOM     18  C           0     136.358 134.351 143.865  0.00  0.00     0.209 C 
ATOM     19  H           0     136.462 130.007 146.425  0.00  0.00     0.178 HD
ATOM     20  H           0     133.460 131.004 144.658  0.00  0.00     0.178 HD
ATOM     21  H           0     136.130 132.317 141.887  0.00  0.00     0.180 HD
ENDROOT
BRANCH   6  22
ATOM     22  C           0     135.985 132.969 147.227  0.00  0.00     0.206 C 
BRANCH  22  23
ATOM     23  O           0     135.238 132.926 148.471  0.00  0.00    -0.320 OA
BRANCH  23  24
ATOM     24  C           0     135.069 131.760 149.112  0.00  0.00     0.254 C 
ATOM     25  C           0     133.686 131.312 149.509  0.00  0.00     0.126 C 
ATOM     26  O           0     136.025 131.069 149.374  0.00  0.00    -0.266 OA
ENDBRANCH  23  24
ENDBRANCH  22  23
ENDBRANCH   6  22
BRANCH  18  27
ATOM     27  O           0     135.615 134.877 142.765  0.00  0.00    -0.362 OA
ATOM     28  H           0     135.918 134.411 141.974  0.00  0.00     0.213 HD
ENDBRANCH  18  27
BRANCH  18  29
ATOM     29  O           0     136.007 135.028 145.074  0.00  0.00    -0.362 OA
ATOM     30  H           0     135.798 135.941 144.832  0.00  0.00     0.213 HD
ENDBRANCH  18  29
TORSDOF 5
ENDMDL
MODEL 7
REMARK VINA RESULT:      -6.2      2.719      4.473
REMARK  5 active torsions:
REMARK  status: ('A' for Active; 'I' for Inactive)
REMARK    1  A    between atoms: C_6  and  C_7 
REMARK    2  A    between atoms: C_7  and  O_8 
REMARK    3  A    between atoms: O_8  and  C_9 
REMARK    4  A    between atoms: C_23  and  O_24 
REMARK    5  A    between atoms: C_23  and  O_25 
ROOT
ATOM      1  N           0     134.836 129.925 145.224  0.00  0.00    -0.235 N 
ATOM      2  H           0     134.487 129.571 144.391  0.00  0.00     0.174 HD
ATOM      3  H           0     134.560 129.537 146.069  0.00  0.00     0.174 HD
ATOM      4  C           0     135.682 130.916 145.208  0.00  0.00     0.672 C 
ATOM      5  N           0     136.112 131.499 144.028  0.00  0.00    -0.218 N 
ATOM      6  C           0     136.509 132.903 144.055  0.00  0.00     0.151 C 
ATOM      7  C           0     137.512 133.206 145.151  0.00  0.00     0.180 C 
ATOM      8  N           0     138.847 132.726 144.735  0.00  0.00    -0.216 N 
ATOM      9  C           0     139.454 132.178 145.840  0.00  0.00     0.670 C 
ATOM     10  N           0     140.739 131.988 145.950  0.00  0.00    -0.235 N 
ATOM     11  H           0     141.331 132.238 145.224  0.00  0.00     0.174 HD
ATOM     12  H           0     141.103 131.597 146.759  0.00  0.00     0.174 HD
ATOM     13  C           0     137.250 132.467 146.455  0.00  0.00     0.217 C 
ATOM     14  N           0     138.540 131.857 146.812  0.00  0.00    -0.191 N 
ATOM     15  N           0     136.199 131.453 146.358  0.00  0.00    -0.183 N 
ATOM     16  C           0     135.785 131.187 147.747  0.00  0.00     0.150 C 
ATOM     17  C           0     135.821 132.574 148.431  0.00  0.00     0.093 C 
ATOM     18  C           0     136.795 133.421 147.573  0.00  0.00     0.209 C 
ATOM     19  H           0     136.148 130.986 143.204  0.00  0.00     0.178 HD
ATOM     20  H           0     139.227 132.787 143.844  0.00  0.00     0.178 HD
ATOM     21  H           0     138.716 131.321 147.601  0.00  0.00     0.180 HD
ENDROOT
BRANCH   6  22
ATOM     22  C           0     135.265 133.765 144.273  0.00  0.00     0.206 C 
BRANCH  22  23
ATOM     23  O           0     135.144 134.724 143.191  0.00  0.00    -0.320 OA
BRANCH  23  24
ATOM     24  C           0     134.099 134.659 142.351  0.00  0.00     0.254 C 
ATOM     25  C           0     133.384 133.351 142.134  0.00  0.00     0.126 C 
ATOM     26  O           0     133.732 135.652 141.766  0.00  0.00    -0.266 OA
ENDBRANCH  23  24
ENDBRANCH  22  23
ENDBRANCH   6  22
BRANCH  18  27
ATOM     27  O           0     137.911 133.845 148.358  0.00  0.00    -0.362 OA
ATOM     28  H           0     137.564 134.099 149.223  0.00  0.00     0.213 HD
ENDBRANCH  18  27
BRANCH  18  29
ATOM     29  O           0     136.117 134.550 147.018  0.00  0.00    -0.362 OA
ATOM     30  H           0     135.182 134.312 146.958  0.00  0.00     0.213 HD
ENDBRANCH  18  29
TORSDOF 5
ENDMDL
MODEL 8
REMARK VINA RESULT:      -6.1      2.647      3.872
REMARK  5 active torsions:
REMARK  status: ('A' for Active; 'I' for Inactive)
REMARK    1  A    between atoms: C_6  and  C_7 
REMARK    2  A    between atoms: C_7  and  O_8 
REMARK    3  A    between atoms: O_8  and  C_9 
REMARK    4  A    between atoms: C_23  and  O_24 
REMARK    5  A    between atoms: C_23  and  O_25 
ROOT
ATOM      1  N           0     136.277 134.819 148.014  0.00  0.00    -0.235 N 
ATOM      2  H           0     135.482 135.370 147.944  0.00  0.00     0.174 HD
ATOM      3  H           0     136.944 135.014 148.690  0.00  0.00     0.174 HD
ATOM      4  C           0     136.444 133.811 147.205  0.00  0.00     0.672 C 
ATOM      5  N           0     135.518 133.488 146.228  0.00  0.00    -0.218 N 
ATOM      6  C           0     135.992 132.824 145.018  0.00  0.00     0.151 C 
ATOM      7  C           0     136.844 131.606 145.315  0.00  0.00     0.180 C 
ATOM      8  N           0     135.967 130.484 145.714  0.00  0.00    -0.216 N 
ATOM      9  C           0     136.591 129.814 146.737  0.00  0.00     0.670 C 
ATOM     10  N           0     136.307 128.592 147.093  0.00  0.00    -0.235 N 
ATOM     11  H           0     135.616 128.098 146.624  0.00  0.00     0.174 HD
ATOM     12  H           0     136.787 128.176 147.825  0.00  0.00     0.174 HD
ATOM     13  C           0     137.780 131.776 146.502  0.00  0.00     0.217 C 
ATOM     14  N           0     137.551 130.589 147.340  0.00  0.00    -0.191 N 
ATOM     15  N           0     137.552 133.006 147.262  0.00  0.00    -0.183 N 
ATOM     16  C           0     138.784 133.215 148.043  0.00  0.00     0.150 C 
ATOM     17  C           0     139.922 132.789 147.087  0.00  0.00     0.093 C 
ATOM     18  C           0     139.255 131.833 146.066  0.00  0.00     0.209 C 
ATOM     19  H           0     134.577 133.698 146.347  0.00  0.00     0.178 HD
ATOM     20  H           0     135.107 130.262 145.323  0.00  0.00     0.178 HD
ATOM     21  H           0     138.003 130.386 148.174  0.00  0.00     0.180 HD
ENDROOT
BRANCH   6  22
ATOM     22  C           0     136.820 133.818 144.202  0.00  0.00     0.206 C 
BRANCH  22  23
ATOM     23  O           0     136.149 134.089 142.944  0.00  0.00    -0.320 OA
BRANCH  23  24
ATOM     24  C           0     134.942 134.676 142.939  0.00  0.00     0.254 C 
ATOM     25  C           0     134.800 136.115 143.363  0.00  0.00     0.126 C 
ATOM     26  O           0     133.967 134.049 142.597  0.00  0.00    -0.266 OA
ENDBRANCH  23  24
ENDBRANCH  22  23
ENDBRANCH   6  22
BRANCH  18  27
ATOM     27  O           0     139.849 130.536 146.135  0.00  0.00    -0.362 OA
ATOM     28  H           0     140.391 130.518 146.936  0.00  0.00     0.213 HD
ENDBRANCH  18  27
BRANCH  18  29
ATOM     29  O           0     139.362 132.362 144.744  0.00  0.00    -0.362 OA
ATOM     30  H           0     140.112 132.973 144.747  0.00  0.00     0.213 HD
ENDBRANCH  18  29
TORSDOF 5
ENDMDL
MODEL 9
REMARK VINA RESULT:      -6.1      8.733     11.379
REMARK  5 active torsions:
REMARK  status: ('A' for Active; 'I' for Inactive)
REMARK    1  A    between atoms: C_6  and  C_7 
REMARK    2  A    between atoms: C_7  and  O_8 
REMARK    3  A    between atoms: O_8  and  C_9 
REMARK    4  A    between atoms: C_23  and  O_24 
REMARK    5  A    between atoms: C_23  and  O_25 
ROOT
ATOM      1  N           0     128.898 132.725 130.929  0.00  0.00    -0.235 N 
ATOM      2  H           0     128.011 132.429 130.669  0.00  0.00     0.174 HD
ATOM      3  H           0     129.336 133.435 130.433  0.00  0.00     0.174 HD
ATOM      4  C           0     129.497 132.174 131.947  0.00  0.00     0.672 C 
ATOM      5  N           0     128.910 131.164 132.689  0.00  0.00    -0.218 N 
ATOM      6  C           0     129.782 130.198 133.351  0.00  0.00     0.151 C 
ATOM      7  C           0     130.863 130.860 134.183  0.00  0.00     0.180 C 
ATOM      8  N           0     130.272 131.353 135.446  0.00  0.00    -0.216 N 
ATOM      9  C           0     130.841 132.572 135.722  0.00  0.00     0.670 C 
ATOM     10  N           0     130.844 133.129 136.901  0.00  0.00    -0.235 N 
ATOM     11  H           0     130.425 132.678 137.651  0.00  0.00     0.174 HD
ATOM     12  H           0     131.265 133.992 137.029  0.00  0.00     0.174 HD
ATOM     13  C           0     131.459 132.108 133.549  0.00  0.00     0.217 C 
ATOM     14  N           0     131.407 133.133 134.604  0.00  0.00    -0.191 N 
ATOM     15  N           0     130.751 132.556 132.349  0.00  0.00    -0.183 N 
ATOM     16  C           0     131.694 133.446 131.649  0.00  0.00     0.150 C 
ATOM     17  C           0     133.073 132.772 131.843  0.00  0.00     0.093 C 
ATOM     18  C           0     132.915 131.887 133.105  0.00  0.00     0.209 C 
ATOM     19  H           0     127.945 131.100 132.766  0.00  0.00     0.178 HD
ATOM     20  H           0     129.603 130.898 135.982  0.00  0.00     0.178 HD
ATOM     21  H           0     131.722 134.046 134.524  0.00  0.00     0.180 HD
ENDROOT
BRANCH   6  22
ATOM     22  C           0     130.446 129.321 132.289  0.00  0.00     0.206 C 
BRANCH  22  23
ATOM     23  O           0     130.356 127.928 132.685  0.00  0.00    -0.320 OA
BRANCH  23  24
ATOM     24  C           0     131.472 127.229 132.944  0.00  0.00     0.254 C 
ATOM     25  C           0     131.455 125.725 132.868  0.00  0.00     0.126 C 
ATOM     26  O           0     132.491 127.807 133.239  0.00  0.00    -0.266 OA
ENDBRANCH  23  24
ENDBRANCH  22  23
ENDBRANCH   6  22
BRANCH  18  27
ATOM     27  O           0     133.821 132.308 134.126  0.00  0.00    -0.362 OA
ATOM     28  H           0     134.635 131.799 134.005  0.00  0.00     0.213 HD
ENDBRANCH  18  27
BRANCH  18  29
ATOM     29  O           0     133.132 130.512 132.780  0.00  0.00    -0.362 OA
ATOM     30  H           0     133.825 130.491 132.106  0.00  0.00     0.213 HD
ENDBRANCH  18  29
TORSDOF 5
ENDMDL
