# created with PyMOL 2.3.4
@<TRIPOS>MOLECULE
ligand_out_0001
30 32 1                 
SMALL
USER_CHARGES
@<TRIPOS>ATOM
1	   N	134.891	136.700	143.084	N.3	1	UNK0	-0.235	
2	   N	133.761	134.639	142.973	N.3	1	UNK0	-0.218	
3	   N	134.181	132.099	144.664	N.3	1	UNK0	-0.216	
4	   N	134.926	131.671	146.869	N.3	1	UNK0	-0.235	
5	   N	136.115	133.060	145.370	N.3	1	UNK0	-0.191	
6	   N	136.006	134.708	143.603	N.3	1	UNK0	-0.183	
7	   C	134.889	135.403	143.217	C.3	1	UNK0	0.672	
8	   C	133.943	133.261	142.531	C.3	1	UNK0	0.151	
9	   C	134.888	132.479	143.423	C.3	1	UNK0	0.180	
10	   C	135.066	132.242	145.705	C.3	1	UNK0	0.670	
11	   C	136.083	133.280	143.915	C.3	1	UNK0	0.217	
12	   C	137.385	135.211	143.734	C.3	1	UNK0	0.150	
13	   C	138.264	134.075	143.160	C.3	1	UNK0	0.093	
14	   C	137.399	132.795	143.283	C.3	1	UNK0	0.209	
15	   C	134.503	133.268	141.107	C.2	1	UNK0	0.206	
16	   C	133.418	134.844	139.625	C.2	1	UNK0	0.254	
17	   C	133.636	135.013	138.144	C.3	1	UNK0	0.126	
18	   O	133.449	133.620	140.174	O.2	1	UNK0	-0.320	
19	   O	133.217	135.813	140.320	O.co2	1	UNK0	-0.266	
20	   O	138.041	131.839	144.128	O.2	1	UNK0	-0.362	
21	   O	137.153	132.234	141.992	O.2	1	UNK0	-0.362	
22	   H	134.084	137.160	142.806	 H	1	UNK0	0.174	
23	   H	135.698	137.205	143.268	 H	1	UNK0	0.174	
24	   H	134.158	131.102	147.041	 H	1	UNK0	0.174	
25	   H	135.589	131.813	147.562	 H	1	UNK0	0.174	
26	   H	132.873	135.011	143.095	 H	1	UNK0	0.178	
27	   H	133.259	131.802	144.732	 H	1	UNK0	0.178	
28	   H	136.768	133.427	145.985	 H	1	UNK0	0.180	
29	   H	137.461	131.706	144.890	 H	1	UNK0	0.213	
30	   H	137.791	132.636	141.387	 H	1	UNK0	0.213	
@<TRIPOS>BOND
1 1 7 1
2 1 22 1
3 1 23 1
4 2 8 1
5 2 26 1
6 3 10 1
7 3 27 1
8 4 24 1
9 4 25 1
10 5 28 1
11 6 12 1
12 2 7 1
13 6 7 1
14 8 9 1
15 8 15 1
16 3 9 1
17 9 11 1
18 4 10 1
19 5 10 1
20 5 11 1
21 6 11 1
22 11 14 1
23 12 13 1
24 13 14 1
25 14 20 2
26 14 21 2
27 15 18 2
28 16 17 1
29 16 19 2
30 16 18 2
31 20 29 1
32 21 30 1
@<TRIPOS>SUBSTRUCTURE
1	UNK0	1	GROUP	1 ****	UNK
