# created with PyMOL 2.3.4
@<TRIPOS>MOLECULE
ligand_out_0001
32 34 1                 
SMALL
USER_CHARGES
@<TRIPOS>ATOM
1	   N	139.087	133.175	143.156	N.3	1	UNK0	-0.235	
2	   N	137.238	134.629	143.094	N.3	1	UNK0	-0.218	
3	   N	135.507	135.672	145.420	N.3	1	UNK0	-0.216	
4	   N	135.891	136.115	147.711	N.3	1	UNK0	-0.235	
5	   N	136.502	134.073	146.690	N.3	1	UNK0	-0.191	
6	   N	137.358	132.961	144.719	N.3	1	UNK0	-0.183	
7	   N	133.831	134.765	140.179	N.pl3	1	UNK0	-0.341	
8	   C	137.944	133.570	143.640	C.3	1	UNK0	0.672	
9	   C	135.785	134.633	143.227	C.3	1	UNK0	0.151	
10	   C	135.328	134.418	144.657	C.3	1	UNK0	0.180	
11	   C	135.962	135.334	146.671	C.3	1	UNK0	0.670	
12	   C	136.155	133.400	145.427	C.3	1	UNK0	0.217	
13	   C	137.759	131.704	145.377	C.3	1	UNK0	0.150	
14	   C	136.423	130.988	145.685	C.3	1	UNK0	0.093	
15	   C	135.361	132.116	145.719	C.3	1	UNK0	0.209	
16	   C	135.205	133.521	142.352	C.2	1	UNK0	0.208	
17	   C	133.204	133.954	141.054	C.2	1	UNK0	0.360	
18	   C	133.218	135.055	138.880	C.3	1	UNK0	0.151	
19	   O	133.766	133.688	142.248	O.2	1	UNK0	-0.302	
20	   O	132.130	133.464	140.765	O.co2	1	UNK0	-0.239	
21	   O	134.750	132.185	147.010	O.2	1	UNK0	-0.362	
22	   O	134.373	131.902	144.710	O.2	1	UNK0	-0.362	
23	   H	139.471	133.627	142.388	 H	1	UNK0	0.174	
24	   H	139.556	132.432	143.566	 H	1	UNK0	0.174	
25	   H	135.495	136.997	147.629	 H	1	UNK0	0.174	
26	   H	136.232	135.816	148.568	 H	1	UNK0	0.174	
27	   H	137.699	135.349	142.636	 H	1	UNK0	0.178	
28	   H	135.334	136.569	145.095	 H	1	UNK0	0.178	
29	   H	137.023	133.688	147.413	 H	1	UNK0	0.180	
30	   H	134.688	135.157	140.409	 H	1	UNK0	0.164	
31	   H	134.465	133.100	147.136	 H	1	UNK0	0.213	
32	   H	133.517	132.115	145.106	 H	1	UNK0	0.213	
@<TRIPOS>BOND
1 1 8 1
2 1 23 1
3 1 24 1
4 2 9 1
5 2 27 1
6 3 11 1
7 3 28 1
8 4 25 1
9 4 26 1
10 5 29 1
11 6 13 1
12 7 18 1
13 7 30 1
14 2 8 1
15 6 8 1
16 9 10 1
17 9 16 1
18 3 10 1
19 10 12 1
20 4 11 1
21 5 11 1
22 5 12 1
23 6 12 1
24 12 15 1
25 13 14 1
26 14 15 1
27 15 21 2
28 15 22 2
29 16 19 2
30 7 17 1
31 17 20 2
32 17 19 2
33 21 31 1
34 22 32 1
@<TRIPOS>SUBSTRUCTURE
1	UNK0	1	GROUP	1 ****	UNK
