MODEL 1
REMARK VINA RESULT:      -8.1      0.000      0.000
REMARK  5 active torsions:
REMARK  status: ('A' for Active; 'I' for Inactive)
REMARK    1  A    between atoms: C_6  and  C_7 
REMARK    2  A    between atoms: C_7  and  O_8 
REMARK    3  A    between atoms: O_8  and  C_9 
REMARK       I    between atoms: C_9  and  N_10 
REMARK    4  A    between atoms: C_23  and  O_24 
REMARK    5  A    between atoms: C_23  and  O_25 
ROOT
ATOM      1  N           0     135.323 136.826 143.272  0.00  0.00    -0.235 N 
ATOM      2  H           0     134.575 137.393 143.027  0.00  0.00     0.174 HD
ATOM      3  H           0     136.189 137.221 143.463  0.00  0.00     0.174 HD
ATOM      4  C           0     135.165 135.535 143.348  0.00  0.00     0.672 C 
ATOM      5  N           0     133.950 134.924 143.089  0.00  0.00    -0.218 N 
ATOM      6  C           0     133.957 133.555 142.583  0.00  0.00     0.151 C 
ATOM      7  C           0     134.810 132.626 143.425  0.00  0.00     0.180 C 
ATOM      8  N           0     134.076 132.278 144.659  0.00  0.00    -0.216 N 
ATOM      9  C           0     134.982 132.264 145.691  0.00  0.00     0.670 C 
ATOM     10  N           0     134.787 131.662 146.831  0.00  0.00    -0.235 N 
ATOM     11  H           0     133.958 131.184 146.990  0.00  0.00     0.174 HD
ATOM     12  H           0     135.471 131.692 147.518  0.00  0.00     0.174 HD
ATOM     13  C           0     136.099 133.253 143.931  0.00  0.00     0.217 C 
ATOM     14  N           0     136.120 132.964 145.374  0.00  0.00    -0.191 N 
ATOM     15  N           0     136.192 134.692 143.683  0.00  0.00    -0.183 N 
ATOM     16  C           0     137.624 135.019 143.815  0.00  0.00     0.150 C 
ATOM     17  C           0     138.352 133.811 143.176  0.00  0.00     0.093 C 
ATOM     18  C           0     137.339 132.641 143.257  0.00  0.00     0.209 C 
ATOM     19  H           0     133.115 135.394 143.240  0.00  0.00     0.178 HD
ATOM     20  H           0     133.126 132.091 144.729  0.00  0.00     0.178 HD
ATOM     21  H           0     136.820 133.221 145.995  0.00  0.00     0.180 HD
ENDROOT
BRANCH   6  22
ATOM     22  C           0     134.498 133.560 141.152  0.00  0.00     0.208 C 
BRANCH  22  23
ATOM     23  O           0     133.401 133.740 140.219  0.00  0.00    -0.302 OA
BRANCH  23  24
ATOM     24  C           0     133.388 134.801 139.390  0.00  0.00     0.358 C 
ATOM     25  N           0     133.562 136.043 139.883  0.00  0.00    -0.346 N 
ATOM     26  H           0     133.697 136.173 140.836  0.00  0.00     0.161 HD
ATOM     27  H           0     133.552 136.808 139.286  0.00  0.00     0.161 HD
ATOM     28  O           0     133.220 134.638 138.198  0.00  0.00    -0.239 OA
ENDBRANCH  23  24
ENDBRANCH  22  23
ENDBRANCH   6  22
BRANCH  18  29
ATOM     29  O           0     137.869 131.577 144.050  0.00  0.00    -0.362 OA
ATOM     30  H           0     138.762 131.402 143.721  0.00  0.00     0.213 HD
ENDBRANCH  18  29
BRANCH  18  31
ATOM     31  O           0     137.013 132.173 141.947  0.00  0.00    -0.362 OA
ATOM     32  H           0     137.603 132.630 141.332  0.00  0.00     0.213 HD
ENDBRANCH  18  31
TORSDOF 5
ENDMDL
MODEL 2
REMARK VINA RESULT:      -8.0      2.105      5.742
REMARK  5 active torsions:
REMARK  status: ('A' for Active; 'I' for Inactive)
REMARK    1  A    between atoms: C_6  and  C_7 
REMARK    2  A    between atoms: C_7  and  O_8 
REMARK    3  A    between atoms: O_8  and  C_9 
REMARK       I    between atoms: C_9  and  N_10 
REMARK    4  A    between atoms: C_23  and  O_24 
REMARK    5  A    between atoms: C_23  and  O_25 
ROOT
ATOM      1  N           0     135.495 132.728 147.094  0.00  0.00    -0.235 N 
ATOM      2  H           0     135.803 132.979 147.978  0.00  0.00     0.174 HD
ATOM      3  H           0     134.879 131.986 146.987  0.00  0.00     0.174 HD
ATOM      4  C           0     135.903 133.391 146.048  0.00  0.00     0.672 C 
ATOM      5  N           0     136.777 134.459 146.148  0.00  0.00    -0.218 N 
ATOM      6  C           0     137.656 134.742 145.017  0.00  0.00     0.151 C 
ATOM      7  C           0     136.905 134.836 143.703  0.00  0.00     0.180 C 
ATOM      8  N           0     136.215 136.141 143.629  0.00  0.00    -0.216 N 
ATOM      9  C           0     134.984 135.929 143.059  0.00  0.00     0.670 C 
ATOM     10  N           0     134.259 136.863 142.511  0.00  0.00    -0.235 N 
ATOM     11  H           0     134.583 137.777 142.489  0.00  0.00     0.174 HD
ATOM     12  H           0     133.396 136.643 142.125  0.00  0.00     0.174 HD
ATOM     13  C           0     135.783 133.821 143.555  0.00  0.00     0.217 C 
ATOM     14  N           0     134.611 134.610 143.137  0.00  0.00    -0.191 N 
ATOM     15  N           0     135.500 133.071 144.778  0.00  0.00    -0.183 N 
ATOM     16  C           0     134.747 131.881 144.340  0.00  0.00     0.150 C 
ATOM     17  C           0     135.421 131.470 143.008  0.00  0.00     0.093 C 
ATOM     18  C           0     136.105 132.760 142.488  0.00  0.00     0.209 C 
ATOM     19  H           0     136.805 135.006 146.948  0.00  0.00     0.178 HD
ATOM     20  H           0     136.568 136.994 143.929  0.00  0.00     0.178 HD
ATOM     21  H           0     133.728 134.257 142.947  0.00  0.00     0.180 HD
ENDROOT
BRANCH   6  22
ATOM     22  C           0     138.698 133.627 144.910  0.00  0.00     0.208 C 
BRANCH  22  23
ATOM     23  O           0     139.408 133.506 146.170  0.00  0.00    -0.302 OA
BRANCH  23  24
ATOM     24  C           0     140.474 132.688 146.267  0.00  0.00     0.358 C 
ATOM     25  N           0     140.818 132.169 147.462  0.00  0.00    -0.346 N 
ATOM     26  H           0     140.299 132.383 148.253  0.00  0.00     0.161 HD
ATOM     27  H           0     141.587 131.580 147.531  0.00  0.00     0.161 HD
ATOM     28  O           0     141.125 132.420 145.276  0.00  0.00    -0.239 OA
ENDBRANCH  23  24
ENDBRANCH  22  23
ENDBRANCH   6  22
BRANCH  18  29
ATOM     29  O           0     135.560 133.136 141.223  0.00  0.00    -0.362 OA
ATOM     30  H           0     136.307 133.243 140.617  0.00  0.00     0.213 HD
ENDBRANCH  18  29
BRANCH  18  31
ATOM     31  O           0     137.517 132.569 142.388  0.00  0.00    -0.362 OA
ATOM     32  H           0     137.676 131.617 142.450  0.00  0.00     0.213 HD
ENDBRANCH  18  31
TORSDOF 5
ENDMDL
MODEL 3
REMARK VINA RESULT:      -7.3      2.550      3.694
REMARK  5 active torsions:
REMARK  status: ('A' for Active; 'I' for Inactive)
REMARK    1  A    between atoms: C_6  and  C_7 
REMARK    2  A    between atoms: C_7  and  O_8 
REMARK    3  A    between atoms: O_8  and  C_9 
REMARK       I    between atoms: C_9  and  N_10 
REMARK    4  A    between atoms: C_23  and  O_24 
REMARK    5  A    between atoms: C_23  and  O_25 
ROOT
ATOM      1  N           0     136.023 134.719 147.755  0.00  0.00    -0.235 N 
ATOM      2  H           0     135.182 134.627 148.228  0.00  0.00     0.174 HD
ATOM      3  H           0     136.554 135.524 147.862  0.00  0.00     0.174 HD
ATOM      4  C           0     136.443 133.761 146.978  0.00  0.00     0.672 C 
ATOM      5  N           0     135.725 132.592 146.795  0.00  0.00    -0.218 N 
ATOM      6  C           0     135.874 131.879 145.530  0.00  0.00     0.151 C 
ATOM      7  C           0     137.325 131.631 145.167  0.00  0.00     0.180 C 
ATOM      8  N           0     137.846 130.512 145.980  0.00  0.00    -0.216 N 
ATOM      9  C           0     139.131 130.829 146.346  0.00  0.00     0.670 C 
ATOM     10  N           0     140.015 129.958 146.746  0.00  0.00    -0.235 N 
ATOM     11  H           0     139.780 129.019 146.799  0.00  0.00     0.174 HD
ATOM     12  H           0     140.907 130.250 146.990  0.00  0.00     0.174 HD
ATOM     13  C           0     138.255 132.788 145.498  0.00  0.00     0.217 C 
ATOM     14  N           0     139.371 132.176 146.239  0.00  0.00    -0.191 N 
ATOM     15  N           0     137.622 133.847 146.285  0.00  0.00    -0.183 N 
ATOM     16  C           0     138.491 135.027 146.119  0.00  0.00     0.150 C 
ATOM     17  C           0     138.941 134.967 144.639  0.00  0.00     0.093 C 
ATOM     18  C           0     138.785 133.480 144.231  0.00  0.00     0.209 C 
ATOM     19  H           0     135.138 132.255 147.490  0.00  0.00     0.178 HD
ATOM     20  H           0     137.368 129.701 146.213  0.00  0.00     0.178 HD
ATOM     21  H           0     140.145 132.645 146.588  0.00  0.00     0.180 HD
ENDROOT
BRANCH   6  22
ATOM     22  C           0     135.221 132.703 144.419  0.00  0.00     0.208 C 
BRANCH  22  23
ATOM     23  O           0     135.315 131.983 143.163  0.00  0.00    -0.302 OA
BRANCH  23  24
ATOM     24  C           0     134.793 132.514 142.041  0.00  0.00     0.358 C 
ATOM     25  N           0     135.597 133.118 141.144  0.00  0.00    -0.346 N 
ATOM     26  H           0     136.553 133.170 141.306  0.00  0.00     0.161 HD
ATOM     27  H           0     135.221 133.502 140.336  0.00  0.00     0.161 HD
ATOM     28  O           0     133.597 132.449 141.838  0.00  0.00    -0.239 OA
ENDBRANCH  23  24
ENDBRANCH  22  23
ENDBRANCH   6  22
BRANCH  18  29
ATOM     29  O           0     140.049 132.934 143.851  0.00  0.00    -0.362 OA
ATOM     30  H           0     140.709 133.314 144.447  0.00  0.00     0.213 HD
ENDBRANCH  18  29
BRANCH  18  31
ATOM     31  O           0     137.843 133.352 143.164  0.00  0.00    -0.362 OA
ATOM     32  H           0     137.291 132.585 143.369  0.00  0.00     0.213 HD
ENDBRANCH  18  31
TORSDOF 5
ENDMDL
MODEL 4
REMARK VINA RESULT:      -7.0      2.455      5.331
REMARK  5 active torsions:
REMARK  status: ('A' for Active; 'I' for Inactive)
REMARK    1  A    between atoms: C_6  and  C_7 
REMARK    2  A    between atoms: C_7  and  O_8 
REMARK    3  A    between atoms: O_8  and  C_9 
REMARK       I    between atoms: C_9  and  N_10 
REMARK    4  A    between atoms: C_23  and  O_24 
REMARK    5  A    between atoms: C_23  and  O_25 
ROOT
ATOM      1  N           0     135.971 134.595 147.064  0.00  0.00    -0.235 N 
ATOM      2  H           0     136.371 135.433 147.344  0.00  0.00     0.174 HD
ATOM      3  H           0     135.496 134.045 147.708  0.00  0.00     0.174 HD
ATOM      4  C           0     136.068 134.208 145.823  0.00  0.00     0.672 C 
ATOM      5  N           0     136.730 134.958 144.867  0.00  0.00    -0.218 N 
ATOM      6  C           0     137.339 134.259 143.739  0.00  0.00     0.151 C 
ATOM      7  C           0     136.374 133.314 143.048  0.00  0.00     0.180 C 
ATOM      8  N           0     135.450 134.096 142.201  0.00  0.00    -0.216 N 
ATOM      9  C           0     134.203 133.533 142.318  0.00  0.00     0.670 C 
ATOM     10  N           0     133.234 133.713 141.465  0.00  0.00    -0.235 N 
ATOM     11  H           0     133.372 134.276 140.687  0.00  0.00     0.174 HD
ATOM     12  H           0     132.376 133.284 141.608  0.00  0.00     0.174 HD
ATOM     13  C           0     135.454 132.563 143.997  0.00  0.00     0.217 C 
ATOM     14  N           0     134.102 132.755 143.445  0.00  0.00    -0.191 N 
ATOM     15  N           0     135.525 133.029 145.382  0.00  0.00    -0.183 N 
ATOM     16  C           0     134.946 131.941 146.191  0.00  0.00     0.150 C 
ATOM     17  C           0     135.453 130.646 145.509  0.00  0.00     0.093 C 
ATOM     18  C           0     135.786 131.062 144.053  0.00  0.00     0.209 C 
ATOM     19  H           0     136.788 135.922 144.944  0.00  0.00     0.178 HD
ATOM     20  H           0     135.681 134.867 141.659  0.00  0.00     0.178 HD
ATOM     21  H           0     133.282 132.393 143.813  0.00  0.00     0.180 HD
ENDROOT
BRANCH   6  22
ATOM     22  C           0     138.538 133.456 144.245  0.00  0.00     0.208 C 
BRANCH  22  23
ATOM     23  O           0     139.253 134.230 145.243  0.00  0.00    -0.302 OA
BRANCH  23  24
ATOM     24  C           0     139.648 133.647 146.391  0.00  0.00     0.358 C 
ATOM     25  N           0     140.784 132.923 146.423  0.00  0.00    -0.346 N 
ATOM     26  H           0     141.318 132.821 145.619  0.00  0.00     0.161 HD
ATOM     27  H           0     141.068 132.503 147.250  0.00  0.00     0.161 HD
ATOM     28  O           0     138.980 133.775 147.398  0.00  0.00    -0.239 OA
ENDBRANCH  23  24
ENDBRANCH  22  23
ENDBRANCH   6  22
BRANCH  18  29
ATOM     29  O           0     134.976 130.332 143.130  0.00  0.00    -0.362 OA
ATOM     30  H           0     134.818 130.916 142.375  0.00  0.00     0.213 HD
ENDBRANCH  18  29
BRANCH  18  31
ATOM     31  O           0     137.172 130.849 143.779  0.00  0.00    -0.362 OA
ATOM     32  H           0     137.558 130.461 144.577  0.00  0.00     0.213 HD
ENDBRANCH  18  31
TORSDOF 5
ENDMDL
MODEL 5
REMARK VINA RESULT:      -7.0      3.315      6.092
REMARK  5 active torsions:
REMARK  status: ('A' for Active; 'I' for Inactive)
REMARK    1  A    between atoms: C_6  and  C_7 
REMARK    2  A    between atoms: C_7  and  O_8 
REMARK    3  A    between atoms: O_8  and  C_9 
REMARK       I    between atoms: C_9  and  N_10 
REMARK    4  A    between atoms: C_23  and  O_24 
REMARK    5  A    between atoms: C_23  and  O_25 
ROOT
ATOM      1  N           0     139.111 130.444 145.961  0.00  0.00    -0.235 N 
ATOM      2  H           0     139.276 129.597 146.402  0.00  0.00     0.174 HD
ATOM      3  H           0     139.848 130.942 145.574  0.00  0.00     0.174 HD
ATOM      4  C           0     137.897 130.914 145.883  0.00  0.00     0.672 C 
ATOM      5  N           0     136.811 130.240 146.415  0.00  0.00    -0.218 N 
ATOM      6  C           0     135.660 131.022 146.857  0.00  0.00     0.151 C 
ATOM      7  C           0     135.173 131.993 145.799  0.00  0.00     0.180 C 
ATOM      8  N           0     134.408 131.252 144.774  0.00  0.00    -0.216 N 
ATOM      9  C           0     134.732 131.784 143.550  0.00  0.00     0.670 C 
ATOM     10  N           0     134.008 131.642 142.475  0.00  0.00    -0.235 N 
ATOM     11  H           0     133.182 131.134 142.511  0.00  0.00     0.174 HD
ATOM     12  H           0     134.295 132.046 141.641  0.00  0.00     0.174 HD
ATOM     13  C           0     136.286 132.663 145.011  0.00  0.00     0.217 C 
ATOM     14  N           0     135.912 132.484 143.598  0.00  0.00    -0.191 N 
ATOM     15  N           0     137.614 132.109 145.275  0.00  0.00    -0.183 N 
ATOM     16  C           0     138.566 133.131 144.803  0.00  0.00     0.150 C 
ATOM     17  C           0     137.910 134.477 145.200  0.00  0.00     0.093 C 
ATOM     18  C           0     136.398 134.163 145.334  0.00  0.00     0.209 C 
ATOM     19  H           0     136.814 129.273 146.491  0.00  0.00     0.178 HD
ATOM     20  H           0     133.789 130.522 144.936  0.00  0.00     0.178 HD
ATOM     21  H           0     136.412 132.806 142.832  0.00  0.00     0.180 HD
ENDROOT
BRANCH   6  22
ATOM     22  C           0     136.051 131.811 148.108  0.00  0.00     0.208 C 
BRANCH  22  23
ATOM     23  O           0     134.860 132.365 148.724  0.00  0.00    -0.302 OA
BRANCH  23  24
ATOM     24  C           0     133.971 131.549 149.324  0.00  0.00     0.358 C 
ATOM     25  N           0     132.658 131.656 149.036  0.00  0.00    -0.346 N 
ATOM     26  H           0     132.353 132.320 148.397  0.00  0.00     0.161 HD
ATOM     27  H           0     132.018 131.069 149.468  0.00  0.00     0.161 HD
ATOM     28  O           0     134.352 130.718 150.123  0.00  0.00    -0.239 OA
ENDBRANCH  23  24
ENDBRANCH  22  23
ENDBRANCH   6  22
BRANCH  18  29
ATOM     29  O           0     135.644 134.938 144.400  0.00  0.00    -0.362 OA
ATOM     30  H           0     135.647 134.448 143.565  0.00  0.00     0.213 HD
ENDBRANCH  18  29
BRANCH  18  31
ATOM     31  O           0     135.953 134.418 146.668  0.00  0.00    -0.362 OA
ATOM     32  H           0     135.001 134.580 146.619  0.00  0.00     0.213 HD
ENDBRANCH  18  31
TORSDOF 5
ENDMDL
MODEL 6
REMARK VINA RESULT:      -6.8      2.501      4.106
REMARK  5 active torsions:
REMARK  status: ('A' for Active; 'I' for Inactive)
REMARK    1  A    between atoms: C_6  and  C_7 
REMARK    2  A    between atoms: C_7  and  O_8 
REMARK    3  A    between atoms: O_8  and  C_9 
REMARK       I    between atoms: C_9  and  N_10 
REMARK    4  A    between atoms: C_23  and  O_24 
REMARK    5  A    between atoms: C_23  and  O_25 
ROOT
ATOM      1  N           0     135.325 130.423 143.334  0.00  0.00    -0.235 N 
ATOM      2  H           0     135.091 130.298 142.402  0.00  0.00     0.174 HD
ATOM      3  H           0     135.025 129.783 144.000  0.00  0.00     0.174 HD
ATOM      4  C           0     136.046 131.447 143.695  0.00  0.00     0.672 C 
ATOM      5  N           0     136.503 132.384 142.784  0.00  0.00    -0.218 N 
ATOM      6  C           0     136.730 133.749 143.250  0.00  0.00     0.151 C 
ATOM      7  C           0     137.593 133.805 144.495  0.00  0.00     0.180 C 
ATOM      8  N           0     139.006 133.587 144.117  0.00  0.00    -0.216 N 
ATOM      9  C           0     139.577 132.797 145.085  0.00  0.00     0.670 C 
ATOM     10  N           0     140.861 132.697 145.285  0.00  0.00    -0.235 N 
ATOM     11  H           0     141.478 133.200 144.731  0.00  0.00     0.174 HD
ATOM     12  H           0     141.198 132.120 145.988  0.00  0.00     0.174 HD
ATOM     13  C           0     137.309 132.699 145.499  0.00  0.00     0.217 C 
ATOM     14  N           0     138.628 132.127 145.816  0.00  0.00    -0.191 N 
ATOM     15  N           0     136.397 131.669 145.001  0.00  0.00    -0.183 N 
ATOM     16  C           0     135.902 130.972 146.202  0.00  0.00     0.150 C 
ATOM     17  C           0     135.716 132.098 147.248  0.00  0.00     0.093 C 
ATOM     18  C           0     136.653 133.241 146.781  0.00  0.00     0.209 C 
ATOM     19  H           0     136.669 132.140 141.860  0.00  0.00     0.178 HD
ATOM     20  H           0     139.449 133.938 143.329  0.00  0.00     0.178 HD
ATOM     21  H           0     138.798 131.402 146.438  0.00  0.00     0.180 HD
ENDROOT
BRANCH   6  22
ATOM     22  C           0     135.378 134.396 143.558  0.00  0.00     0.208 C 
BRANCH  22  23
ATOM     23  O           0     134.746 134.811 142.319  0.00  0.00    -0.302 OA
BRANCH  23  24
ATOM     24  C           0     133.668 134.148 141.858  0.00  0.00     0.358 C 
ATOM     25  N           0     133.124 133.155 142.589  0.00  0.00    -0.346 N 
ATOM     26  H           0     133.508 132.917 143.448  0.00  0.00     0.161 HD
ATOM     27  H           0     132.347 132.677 142.257  0.00  0.00     0.161 HD
ATOM     28  O           0     133.186 134.446 140.783  0.00  0.00    -0.239 OA
ENDBRANCH  23  24
ENDBRANCH  22  23
ENDBRANCH   6  22
BRANCH  18  29
ATOM     29  O           0     137.641 133.513 147.776  0.00  0.00    -0.362 OA
ATOM     30  H           0     137.677 134.474 147.878  0.00  0.00     0.213 HD
ENDBRANCH  18  29
BRANCH  18  31
ATOM     31  O           0     135.896 134.419 146.492  0.00  0.00    -0.362 OA
ATOM     32  H           0     136.465 134.992 145.960  0.00  0.00     0.213 HD
ENDBRANCH  18  31
TORSDOF 5
ENDMDL
MODEL 7
REMARK VINA RESULT:      -6.8      2.679      3.819
REMARK  5 active torsions:
REMARK  status: ('A' for Active; 'I' for Inactive)
REMARK    1  A    between atoms: C_6  and  C_7 
REMARK    2  A    between atoms: C_7  and  O_8 
REMARK    3  A    between atoms: O_8  and  C_9 
REMARK       I    between atoms: C_9  and  N_10 
REMARK    4  A    between atoms: C_23  and  O_24 
REMARK    5  A    between atoms: C_23  and  O_25 
ROOT
ATOM      1  N           0     139.487 135.664 145.933  0.00  0.00    -0.235 N 
ATOM      2  H           0     139.330 136.517 145.498  0.00  0.00     0.174 HD
ATOM      3  H           0     140.319 135.509 146.409  0.00  0.00     0.174 HD
ATOM      4  C           0     138.582 134.728 145.882  0.00  0.00     0.672 C 
ATOM      5  N           0     137.378 134.903 145.220  0.00  0.00    -0.218 N 
ATOM      6  C           0     136.717 133.726 144.665  0.00  0.00     0.151 C 
ATOM      7  C           0     136.569 132.607 145.678  0.00  0.00     0.180 C 
ATOM      8  N           0     135.457 132.928 146.597  0.00  0.00    -0.216 N 
ATOM      9  C           0     135.838 132.541 147.859  0.00  0.00     0.670 C 
ATOM     10  N           0     135.009 132.333 148.843  0.00  0.00    -0.235 N 
ATOM     11  H           0     134.055 132.451 148.706  0.00  0.00     0.174 HD
ATOM     12  H           0     135.345 132.061 149.711  0.00  0.00     0.174 HD
ATOM     13  C           0     137.767 132.439 146.598  0.00  0.00     0.217 C 
ATOM     14  N           0     137.200 132.401 147.956  0.00  0.00    -0.191 N 
ATOM     15  N           0     138.761 133.506 146.475  0.00  0.00    -0.183 N 
ATOM     16  C           0     139.995 132.960 147.068  0.00  0.00     0.150 C 
ATOM     17  C           0     140.011 131.478 146.623  0.00  0.00     0.093 C 
ATOM     18  C           0     138.532 131.134 146.314  0.00  0.00     0.209 C 
ATOM     19  H           0     136.985 135.784 145.128  0.00  0.00     0.178 HD
ATOM     20  H           0     134.611 133.337 146.354  0.00  0.00     0.178 HD
ATOM     21  H           0     137.702 132.293 148.778  0.00  0.00     0.180 HD
ENDROOT
BRANCH   6  22
ATOM     22  C           0     137.537 133.212 143.480  0.00  0.00     0.208 C 
BRANCH  22  23
ATOM     23  O           0     136.821 132.131 142.827  0.00  0.00    -0.302 OA
BRANCH  23  24
ATOM     24  C           0     135.713 132.394 142.109  0.00  0.00     0.358 C 
ATOM     25  N           0     135.783 133.204 141.034  0.00  0.00    -0.346 N 
ATOM     26  H           0     136.632 133.598 140.778  0.00  0.00     0.161 HD
ATOM     27  H           0     134.984 133.394 140.517  0.00  0.00     0.161 HD
ATOM     28  O           0     134.650 131.900 142.430  0.00  0.00    -0.239 OA
ENDBRANCH  23  24
ENDBRANCH  22  23
ENDBRANCH   6  22
BRANCH  18  29
ATOM     29  O           0     138.074 130.087 147.172  0.00  0.00    -0.362 OA
ATOM     30  H           0     138.043 130.452 148.067  0.00  0.00     0.213 HD
ENDBRANCH  18  29
BRANCH  18  31
ATOM     31  O           0     138.383 130.759 144.943  0.00  0.00    -0.362 OA
ATOM     32  H           0     137.453 130.897 144.716  0.00  0.00     0.213 HD
ENDBRANCH  18  31
TORSDOF 5
ENDMDL
MODEL 8
REMARK VINA RESULT:      -6.8      5.395      9.926
REMARK  5 active torsions:
REMARK  status: ('A' for Active; 'I' for Inactive)
REMARK    1  A    between atoms: C_6  and  C_7 
REMARK    2  A    between atoms: C_7  and  O_8 
REMARK    3  A    between atoms: O_8  and  C_9 
REMARK       I    between atoms: C_9  and  N_10 
REMARK    4  A    between atoms: C_23  and  O_24 
REMARK    5  A    between atoms: C_23  and  O_25 
ROOT
ATOM      1  N           0     131.417 132.133 135.144  0.00  0.00    -0.235 N 
ATOM      2  H           0     130.844 131.832 135.865  0.00  0.00     0.174 HD
ATOM      3  H           0     131.789 131.490 134.519  0.00  0.00     0.174 HD
ATOM      4  C           0     131.687 133.402 135.010  0.00  0.00     0.672 C 
ATOM      5  N           0     131.178 134.358 135.872  0.00  0.00    -0.218 N 
ATOM      6  C           0     131.949 135.580 136.082  0.00  0.00     0.151 C 
ATOM      7  C           0     132.351 136.247 134.782  0.00  0.00     0.180 C 
ATOM      8  N           0     131.184 136.956 134.217  0.00  0.00    -0.216 N 
ATOM      9  C           0     131.204 136.770 132.857  0.00  0.00     0.670 C 
ATOM     10  N           0     130.565 137.522 132.005  0.00  0.00    -0.235 N 
ATOM     11  H           0     130.033 138.269 132.322  0.00  0.00     0.174 HD
ATOM     12  H           0     130.623 137.335 131.055  0.00  0.00     0.174 HD
ATOM     13  C           0     132.756 135.277 133.684  0.00  0.00     0.217 C 
ATOM     14  N           0     131.981 135.695 132.504  0.00  0.00    -0.191 N 
ATOM     15  N           0     132.496 133.874 134.011  0.00  0.00    -0.183 N 
ATOM     16  C           0     133.333 133.096 133.079  0.00  0.00     0.150 C 
ATOM     17  C           0     134.647 133.906 132.975  0.00  0.00     0.093 C 
ATOM     18  C           0     134.261 135.353 133.375  0.00  0.00     0.209 C 
ATOM     19  H           0     130.331 134.220 136.324  0.00  0.00     0.178 HD
ATOM     20  H           0     130.522 137.461 134.716  0.00  0.00     0.178 HD
ATOM     21  H           0     132.016 135.283 131.627  0.00  0.00     0.180 HD
ENDROOT
BRANCH   6  22
ATOM     22  C           0     133.213 135.236 136.872  0.00  0.00     0.208 C 
BRANCH  22  23
ATOM     23  O           0     132.865 134.391 138.000  0.00  0.00    -0.302 OA
BRANCH  23  24
ATOM     24  C           0     133.009 134.852 139.257  0.00  0.00     0.358 C 
ATOM     25  N           0     133.573 136.057 139.473  0.00  0.00    -0.346 N 
ATOM     26  H           0     133.876 136.592 138.722  0.00  0.00     0.161 HD
ATOM     27  H           0     133.677 136.389 140.378  0.00  0.00     0.161 HD
ATOM     28  O           0     132.629 134.181 140.197  0.00  0.00    -0.239 OA
ENDBRANCH  23  24
ENDBRANCH  22  23
ENDBRANCH   6  22
BRANCH  18  29
ATOM     29  O           0     134.507 136.251 132.291  0.00  0.00    -0.362 OA
ATOM     30  H           0     134.381 137.146 132.636  0.00  0.00     0.213 HD
ENDBRANCH  18  29
BRANCH  18  31
ATOM     31  O           0     134.987 135.760 134.537  0.00  0.00    -0.362 OA
ATOM     32  H           0     135.569 136.482 134.263  0.00  0.00     0.213 HD
ENDBRANCH  18  31
TORSDOF 5
ENDMDL
MODEL 9
REMARK VINA RESULT:      -6.7      3.844      5.956
REMARK  5 active torsions:
REMARK  status: ('A' for Active; 'I' for Inactive)
REMARK    1  A    between atoms: C_6  and  C_7 
REMARK    2  A    between atoms: C_7  and  O_8 
REMARK    3  A    between atoms: O_8  and  C_9 
REMARK       I    between atoms: C_9  and  N_10 
REMARK    4  A    between atoms: C_23  and  O_24 
REMARK    5  A    between atoms: C_23  and  O_25 
ROOT
ATOM      1  N           0     135.915 134.822 147.599  0.00  0.00    -0.235 N 
ATOM      2  H           0     136.279 135.718 147.542  0.00  0.00     0.174 HD
ATOM      3  H           0     135.363 134.569 148.357  0.00  0.00     0.174 HD
ATOM      4  C           0     136.161 133.956 146.657  0.00  0.00     0.672 C 
ATOM      5  N           0     136.937 134.268 145.554  0.00  0.00    -0.218 N 
ATOM      6  C           0     137.677 133.191 144.901  0.00  0.00     0.151 C 
ATOM      7  C           0     136.801 131.998 144.571  0.00  0.00     0.180 C 
ATOM      8  N           0     135.990 132.307 143.375  0.00  0.00    -0.216 N 
ATOM      9  C           0     134.736 131.785 143.578  0.00  0.00     0.670 C 
ATOM     10  N           0     133.879 131.544 142.626  0.00  0.00    -0.235 N 
ATOM     11  H           0     134.113 131.735 141.704  0.00  0.00     0.174 HD
ATOM     12  H           0     133.009 131.173 142.839  0.00  0.00     0.174 HD
ATOM     13  C           0     135.770 131.670 145.638  0.00  0.00     0.217 C 
ATOM     14  N           0     134.496 131.547 144.909  0.00  0.00    -0.191 N 
ATOM     15  N           0     135.673 132.676 146.695  0.00  0.00    -0.183 N 
ATOM     16  C           0     134.997 131.999 147.817  0.00  0.00     0.150 C 
ATOM     17  C           0     135.579 130.564 147.806  0.00  0.00     0.093 C 
ATOM     18  C           0     136.089 130.348 146.358  0.00  0.00     0.209 C 
ATOM     19  H           0     136.987 135.178 145.223  0.00  0.00     0.178 HD
ATOM     20  H           0     136.287 132.791 142.588  0.00  0.00     0.178 HD
ATOM     21  H           0     133.636 131.332 145.301  0.00  0.00     0.180 HD
ENDROOT
BRANCH   6  22
ATOM     22  C           0     138.804 132.734 145.829  0.00  0.00     0.208 C 
BRANCH  22  23
ATOM     23  O           0     139.625 133.874 146.193  0.00  0.00    -0.302 OA
BRANCH  23  24
ATOM     24  C           0     140.054 134.018 147.461  0.00  0.00     0.358 C 
ATOM     25  N           0     139.297 134.679 148.359  0.00  0.00    -0.346 N 
ATOM     26  H           0     138.442 135.052 148.091  0.00  0.00     0.161 HD
ATOM     27  H           0     139.607 134.783 149.272  0.00  0.00     0.161 HD
ATOM     28  O           0     141.125 133.550 147.796  0.00  0.00    -0.239 OA
ENDBRANCH  23  24
ENDBRANCH  22  23
ENDBRANCH   6  22
BRANCH  18  29
ATOM     29  O           0     135.396 129.260 145.744  0.00  0.00    -0.362 OA
ATOM     30  H           0     135.861 129.062 144.919  0.00  0.00     0.213 HD
ENDBRANCH  18  29
BRANCH  18  31
ATOM     31  O           0     137.498 130.109 146.356  0.00  0.00    -0.362 OA
ATOM     32  H           0     137.624 129.182 146.604  0.00  0.00     0.213 HD
ENDBRANCH  18  31
TORSDOF 5
ENDMDL
