MODEL 1
REMARK VINA RESULT:      -8.1      0.000      0.000
REMARK  5 active torsions:
REMARK  status: ('A' for Active; 'I' for Inactive)
REMARK    1  A    between atoms: C_6  and  C_7 
REMARK    2  A    between atoms: C_7  and  O_8 
REMARK    3  A    between atoms: O_8  and  C_9 
REMARK       I    between atoms: C_9  and  N_10 
REMARK    4  A    between atoms: C_24  and  O_25 
REMARK    5  A    between atoms: C_24  and  O_26 
ROOT
ATOM      1  N           0     135.522 136.713 143.292  0.00  0.00    -0.235 N 
ATOM      2  H           0     134.794 137.320 143.085  0.00  0.00     0.174 HD
ATOM      3  H           0     136.421 137.057 143.409  0.00  0.00     0.174 HD
ATOM      4  C           0     135.290 135.437 143.419  0.00  0.00     0.672 C 
ATOM      5  N           0     134.024 134.900 143.269  0.00  0.00    -0.218 N 
ATOM      6  C           0     133.905 133.524 142.796  0.00  0.00     0.151 C 
ATOM      7  C           0     134.759 132.558 143.594  0.00  0.00     0.180 C 
ATOM      8  N           0     134.091 132.271 144.882  0.00  0.00    -0.216 N 
ATOM      9  C           0     135.063 132.225 145.853  0.00  0.00     0.670 C 
ATOM     10  N           0     134.910 131.655 147.015  0.00  0.00    -0.235 N 
ATOM     11  H           0     134.068 131.228 147.239  0.00  0.00     0.174 HD
ATOM     12  H           0     135.638 131.658 147.656  0.00  0.00     0.174 HD
ATOM     13  C           0     136.112 133.116 144.003  0.00  0.00     0.217 C 
ATOM     14  N           0     136.214 132.854 145.446  0.00  0.00    -0.191 N 
ATOM     15  N           0     136.288 134.538 143.708  0.00  0.00    -0.179 N 
ATOM     16  C           0     137.736 134.793 143.721  0.00  0.00     0.106 C 
ATOM     17  C           0     138.167 135.295 145.100  0.00  0.00     0.033 C 
ATOM     18  C           0     138.427 133.448 143.409  0.00  0.00     0.098 C 
ATOM     19  C           0     137.270 132.422 143.257  0.00  0.00     0.210 C 
ATOM     20  H           0     133.234 135.426 143.473  0.00  0.00     0.178 HD
ATOM     21  H           0     133.139 132.139 145.018  0.00  0.00     0.178 HD
ATOM     22  H           0     136.966 133.082 146.014  0.00  0.00     0.180 HD
ENDROOT
BRANCH   6  23
ATOM     23  C           0     134.337 133.466 141.329  0.00  0.00     0.208 C 
BRANCH  23  24
ATOM     24  O           0     133.203 133.775 140.477  0.00  0.00    -0.302 OA
BRANCH  24  25
ATOM     25  C           0     133.293 134.764 139.568  0.00  0.00     0.358 C 
ATOM     26  N           0     133.573 136.021 139.964  0.00  0.00    -0.346 N 
ATOM     27  H           0     133.708 136.214 140.905  0.00  0.00     0.161 HD
ATOM     28  H           0     133.637 136.733 139.308  0.00  0.00     0.161 HD
ATOM     29  O           0     133.122 134.522 138.389  0.00  0.00    -0.239 OA
ENDBRANCH  24  25
ENDBRANCH  23  24
ENDBRANCH   6  23
BRANCH  19  30
ATOM     30  O           0     137.610 131.179 143.875  0.00  0.00    -0.362 OA
ATOM     31  H           0     136.862 130.933 144.435  0.00  0.00     0.213 HD
ENDBRANCH  19  30
BRANCH  19  32
ATOM     32  O           0     136.939 132.231 141.880  0.00  0.00    -0.362 OA
ATOM     33  H           0     136.441 133.012 141.602  0.00  0.00     0.213 HD
ENDBRANCH  19  32
TORSDOF 5
ENDMDL
MODEL 2
REMARK VINA RESULT:      -7.5      1.754      1.971
REMARK  5 active torsions:
REMARK  status: ('A' for Active; 'I' for Inactive)
REMARK    1  A    between atoms: C_6  and  C_7 
REMARK    2  A    between atoms: C_7  and  O_8 
REMARK    3  A    between atoms: O_8  and  C_9 
REMARK       I    between atoms: C_9  and  N_10 
REMARK    4  A    between atoms: C_24  and  O_25 
REMARK    5  A    between atoms: C_24  and  O_26 
ROOT
ATOM      1  N           0     136.452 135.859 143.587  0.00  0.00    -0.235 N 
ATOM      2  H           0     135.809 136.448 143.161  0.00  0.00     0.174 HD
ATOM      3  H           0     137.383 136.124 143.651  0.00  0.00     0.174 HD
ATOM      4  C           0     136.064 134.717 144.081  0.00  0.00     0.672 C 
ATOM      5  N           0     134.746 134.299 144.021  0.00  0.00    -0.218 N 
ATOM      6  C           0     134.475 132.865 143.980  0.00  0.00     0.151 C 
ATOM      7  C           0     135.184 132.107 145.086  0.00  0.00     0.180 C 
ATOM      8  N           0     134.452 132.304 146.356  0.00  0.00    -0.216 N 
ATOM      9  C           0     135.384 132.456 147.353  0.00  0.00     0.670 C 
ATOM     10  N           0     135.133 132.291 148.622  0.00  0.00    -0.235 N 
ATOM     11  H           0     134.240 132.047 148.912  0.00  0.00     0.174 HD
ATOM     12  H           0     135.838 132.414 149.276  0.00  0.00     0.174 HD
ATOM     13  C           0     136.583 132.615 145.390  0.00  0.00     0.217 C 
ATOM     14  N           0     136.614 132.801 146.848  0.00  0.00    -0.191 N 
ATOM     15  N           0     136.938 133.850 144.689  0.00  0.00    -0.179 N 
ATOM     16  C           0     138.405 133.939 144.715  0.00  0.00     0.106 C 
ATOM     17  C           0     138.857 134.793 145.902  0.00  0.00     0.033 C 
ATOM     18  C           0     138.936 132.498 144.870  0.00  0.00     0.098 C 
ATOM     19  C           0     137.668 131.606 144.964  0.00  0.00     0.210 C 
ATOM     20  H           0     134.021 134.944 144.006  0.00  0.00     0.178 HD
ATOM     21  H           0     133.488 132.323 146.465  0.00  0.00     0.178 HD
ATOM     22  H           0     137.373 133.112 147.367  0.00  0.00     0.180 HD
ENDROOT
BRANCH   6  23
ATOM     23  C           0     134.936 132.313 142.630  0.00  0.00     0.208 C 
BRANCH  23  24
ATOM     24  O           0     133.777 131.992 141.817  0.00  0.00    -0.302 OA
BRANCH  24  25
ATOM     25  C           0     132.884 132.951 141.507  0.00  0.00     0.358 C 
ATOM     26  N           0     131.565 132.680 141.540  0.00  0.00    -0.346 N 
ATOM     27  H           0     131.258 131.793 141.785  0.00  0.00     0.161 HD
ATOM     28  H           0     130.922 133.372 141.316  0.00  0.00     0.161 HD
ATOM     29  O           0     133.269 134.062 141.199  0.00  0.00    -0.239 OA
ENDBRANCH  24  25
ENDBRANCH  23  24
ENDBRANCH   6  23
BRANCH  19  30
ATOM     30  O           0     137.838 130.585 145.949  0.00  0.00    -0.362 OA
ATOM     31  H           0     137.302 130.841 146.711  0.00  0.00     0.213 HD
ENDBRANCH  19  30
BRANCH  19  32
ATOM     32  O           0     137.353 131.036 143.691  0.00  0.00    -0.362 OA
ATOM     33  H           0     138.099 130.473 143.445  0.00  0.00     0.213 HD
ENDBRANCH  19  32
TORSDOF 5
ENDMDL
MODEL 3
REMARK VINA RESULT:      -7.3      2.654      4.313
REMARK  5 active torsions:
REMARK  status: ('A' for Active; 'I' for Inactive)
REMARK    1  A    between atoms: C_6  and  C_7 
REMARK    2  A    between atoms: C_7  and  O_8 
REMARK    3  A    between atoms: O_8  and  C_9 
REMARK       I    between atoms: C_9  and  N_10 
REMARK    4  A    between atoms: C_24  and  O_25 
REMARK    5  A    between atoms: C_24  and  O_26 
ROOT
ATOM      1  N           0     135.047 129.937 145.415  0.00  0.00    -0.235 N 
ATOM      2  H           0     134.699 129.363 144.714  0.00  0.00     0.174 HD
ATOM      3  H           0     134.863 129.733 146.345  0.00  0.00     0.174 HD
ATOM      4  C           0     135.768 130.977 145.107  0.00  0.00     0.672 C 
ATOM      5  N           0     136.064 131.306 143.795  0.00  0.00    -0.218 N 
ATOM      6  C           0     136.286 132.711 143.465  0.00  0.00     0.151 C 
ATOM      7  C           0     137.298 133.371 144.380  0.00  0.00     0.180 C 
ATOM      8  N           0     138.660 132.964 143.971  0.00  0.00    -0.216 N 
ATOM      9  C           0     139.392 132.754 145.114  0.00  0.00     0.670 C 
ATOM     10  N           0     140.695 132.739 145.157  0.00  0.00    -0.235 N 
ATOM     11  H           0     141.209 132.881 144.347  0.00  0.00     0.174 HD
ATOM     12  H           0     141.150 132.585 145.999  0.00  0.00     0.174 HD
ATOM     13  C           0     137.207 132.929 145.831  0.00  0.00     0.217 C 
ATOM     14  N           0     138.581 132.563 146.206  0.00  0.00    -0.191 N 
ATOM     15  N           0     136.280 131.821 146.063  0.00  0.00    -0.179 N 
ATOM     16  C           0     135.964 131.832 147.498  0.00  0.00     0.106 C 
ATOM     17  C           0     136.889 130.870 148.246  0.00  0.00     0.033 C 
ATOM     18  C           0     136.194 133.276 147.993  0.00  0.00     0.098 C 
ATOM     19  C           0     136.693 134.058 146.746  0.00  0.00     0.210 C 
ATOM     20  H           0     136.123 130.619 143.113  0.00  0.00     0.178 HD
ATOM     21  H           0     138.979 132.864 143.060  0.00  0.00     0.178 HD
ATOM     22  H           0     138.868 132.244 147.076  0.00  0.00     0.180 HD
ENDROOT
BRANCH   6  23
ATOM     23  C           0     134.957 133.460 143.578  0.00  0.00     0.208 C 
BRANCH  23  24
ATOM     24  O           0     135.185 134.882 143.391  0.00  0.00    -0.302 OA
BRANCH  24  25
ATOM     25  C           0     134.379 135.593 142.581  0.00  0.00     0.358 C 
ATOM     26  N           0     134.442 136.939 142.579  0.00  0.00    -0.346 N 
ATOM     27  H           0     135.067 137.396 143.164  0.00  0.00     0.161 HD
ATOM     28  H           0     133.861 137.451 141.995  0.00  0.00     0.161 HD
ATOM     29  O           0     133.595 135.020 141.849  0.00  0.00    -0.239 OA
ENDBRANCH  24  25
ENDBRANCH  23  24
ENDBRANCH   6  23
BRANCH  19  30
ATOM     30  O           0     137.748 134.956 147.099  0.00  0.00    -0.362 OA
ATOM     31  H           0     138.455 134.419 147.480  0.00  0.00     0.213 HD
ENDBRANCH  19  30
BRANCH  19  32
ATOM     32  O           0     135.616 134.760 146.123  0.00  0.00    -0.362 OA
ATOM     33  H           0     135.498 134.369 145.246  0.00  0.00     0.213 HD
ENDBRANCH  19  32
TORSDOF 5
ENDMDL
MODEL 4
REMARK VINA RESULT:      -7.3      3.882      5.794
REMARK  5 active torsions:
REMARK  status: ('A' for Active; 'I' for Inactive)
REMARK    1  A    between atoms: C_6  and  C_7 
REMARK    2  A    between atoms: C_7  and  O_8 
REMARK    3  A    between atoms: O_8  and  C_9 
REMARK       I    between atoms: C_9  and  N_10 
REMARK    4  A    between atoms: C_24  and  O_25 
REMARK    5  A    between atoms: C_24  and  O_26 
ROOT
ATOM      1  N           0     138.552 133.563 142.629  0.00  0.00    -0.235 N 
ATOM      2  H           0     139.378 133.904 142.251  0.00  0.00     0.174 HD
ATOM      3  H           0     137.789 133.396 142.053  0.00  0.00     0.174 HD
ATOM      4  C           0     138.469 133.323 143.907  0.00  0.00     0.672 C 
ATOM      5  N           0     139.532 133.539 144.766  0.00  0.00    -0.218 N 
ATOM      6  C           0     139.241 133.871 146.159  0.00  0.00     0.151 C 
ATOM      7  C           0     138.276 132.894 146.801  0.00  0.00     0.180 C 
ATOM      8  N           0     139.003 131.654 147.152  0.00  0.00    -0.216 N 
ATOM      9  C           0     138.177 130.594 146.865  0.00  0.00     0.670 C 
ATOM     10  N           0     138.322 129.398 147.363  0.00  0.00    -0.235 N 
ATOM     11  H           0     139.050 129.213 147.977  0.00  0.00     0.174 HD
ATOM     12  H           0     137.703 128.693 147.120  0.00  0.00     0.174 HD
ATOM     13  C           0     137.167 132.417 145.879  0.00  0.00     0.217 C 
ATOM     14  N           0     137.180 130.951 145.991  0.00  0.00    -0.191 N 
ATOM     15  N           0     137.320 132.844 144.487  0.00  0.00    -0.179 N 
ATOM     16  C           0     135.995 132.716 143.862  0.00  0.00     0.106 C 
ATOM     17  C           0     135.877 131.363 143.159  0.00  0.00     0.033 C 
ATOM     18  C           0     134.956 132.813 144.999  0.00  0.00     0.098 C 
ATOM     19  C           0     135.790 132.967 146.301  0.00  0.00     0.210 C 
ATOM     20  H           0     140.447 133.470 144.452  0.00  0.00     0.178 HD
ATOM     21  H           0     139.900 131.599 147.517  0.00  0.00     0.178 HD
ATOM     22  H           0     136.585 130.339 145.530  0.00  0.00     0.180 HD
ENDROOT
BRANCH   6  23
ATOM     23  C           0     138.633 135.274 146.215  0.00  0.00     0.208 C 
BRANCH  23  24
ATOM     24  O           0     139.531 136.217 145.574  0.00  0.00    -0.302 OA
BRANCH  24  25
ATOM     25  C           0     139.884 137.350 146.211  0.00  0.00     0.358 C 
ATOM     26  N           0     139.153 137.794 147.252  0.00  0.00    -0.346 N 
ATOM     27  H           0     138.371 137.297 147.543  0.00  0.00     0.161 HD
ATOM     28  H           0     139.407 138.610 147.710  0.00  0.00     0.161 HD
ATOM     29  O           0     140.862 137.972 145.846  0.00  0.00    -0.239 OA
ENDBRANCH  24  25
ENDBRANCH  23  24
ENDBRANCH   6  23
BRANCH  19  30
ATOM     30  O           0     135.227 132.189 147.359  0.00  0.00    -0.362 OA
ATOM     31  H           0     135.438 132.646 148.184  0.00  0.00     0.213 HD
ENDBRANCH  19  30
BRANCH  19  32
ATOM     32  O           0     135.892 134.341 146.679  0.00  0.00    -0.362 OA
ATOM     33  H           0     135.474 134.424 147.547  0.00  0.00     0.213 HD
ENDBRANCH  19  32
TORSDOF 5
ENDMDL
MODEL 5
REMARK VINA RESULT:      -7.2      2.440      3.604
REMARK  5 active torsions:
REMARK  status: ('A' for Active; 'I' for Inactive)
REMARK    1  A    between atoms: C_6  and  C_7 
REMARK    2  A    between atoms: C_7  and  O_8 
REMARK    3  A    between atoms: O_8  and  C_9 
REMARK       I    between atoms: C_9  and  N_10 
REMARK    4  A    between atoms: C_24  and  O_25 
REMARK    5  A    between atoms: C_24  and  O_26 
ROOT
ATOM      1  N           0     135.921 134.645 147.784  0.00  0.00    -0.235 N 
ATOM      2  H           0     135.077 134.512 148.245  0.00  0.00     0.174 HD
ATOM      3  H           0     136.421 135.466 147.915  0.00  0.00     0.174 HD
ATOM      4  C           0     136.386 133.718 146.995  0.00  0.00     0.672 C 
ATOM      5  N           0     135.713 132.528 146.783  0.00  0.00    -0.218 N 
ATOM      6  C           0     135.894 131.848 145.503  0.00  0.00     0.151 C 
ATOM      7  C           0     137.356 131.661 145.145  0.00  0.00     0.180 C 
ATOM      8  N           0     137.906 130.533 145.927  0.00  0.00    -0.216 N 
ATOM      9  C           0     139.176 130.881 146.321  0.00  0.00     0.670 C 
ATOM     10  N           0     140.083 130.027 146.704  0.00  0.00    -0.235 N 
ATOM     11  H           0     139.880 129.079 146.724  0.00  0.00     0.174 HD
ATOM     12  H           0     140.962 130.340 146.969  0.00  0.00     0.174 HD
ATOM     13  C           0     138.244 132.834 145.523  0.00  0.00     0.217 C 
ATOM     14  N           0     139.370 132.239 146.259  0.00  0.00    -0.191 N 
ATOM     15  N           0     137.573 133.862 146.319  0.00  0.00    -0.179 N 
ATOM     16  C           0     138.385 135.081 146.198  0.00  0.00     0.106 C 
ATOM     17  C           0     139.360 135.180 147.374  0.00  0.00     0.033 C 
ATOM     18  C           0     139.167 134.966 144.872  0.00  0.00     0.098 C 
ATOM     19  C           0     138.764 133.587 144.281  0.00  0.00     0.210 C 
ATOM     20  H           0     135.137 132.154 147.467  0.00  0.00     0.178 HD
ATOM     21  H           0     137.453 129.698 146.126  0.00  0.00     0.178 HD
ATOM     22  H           0     140.123 132.721 146.634  0.00  0.00     0.180 HD
ENDROOT
BRANCH   6  23
ATOM     23  C           0     135.219 132.673 144.405  0.00  0.00     0.208 C 
BRANCH  23  24
ATOM     24  O           0     135.351 131.987 143.133  0.00  0.00    -0.302 OA
BRANCH  24  25
ATOM     25  C           0     134.844 132.539 142.014  0.00  0.00     0.358 C 
ATOM     26  N           0     135.663 133.140 141.128  0.00  0.00    -0.346 N 
ATOM     27  H           0     136.617 133.176 141.297  0.00  0.00     0.161 HD
ATOM     28  H           0     135.296 133.537 140.322  0.00  0.00     0.161 HD
ATOM     29  O           0     133.648 132.493 141.803  0.00  0.00    -0.239 OA
ENDBRANCH  24  25
ENDBRANCH  23  24
ENDBRANCH   6  23
BRANCH  19  30
ATOM     30  O           0     139.898 132.927 143.715  0.00  0.00    -0.362 OA
ATOM     31  H           0     140.197 133.472 142.976  0.00  0.00     0.213 HD
ENDBRANCH  19  30
BRANCH  19  32
ATOM     32  O           0     137.724 133.734 143.312  0.00  0.00    -0.362 OA
ATOM     33  H           0     137.927 134.532 142.804  0.00  0.00     0.213 HD
ENDBRANCH  19  32
TORSDOF 5
ENDMDL
MODEL 6
REMARK VINA RESULT:      -7.2      3.188      5.879
REMARK  5 active torsions:
REMARK  status: ('A' for Active; 'I' for Inactive)
REMARK    1  A    between atoms: C_6  and  C_7 
REMARK    2  A    between atoms: C_7  and  O_8 
REMARK    3  A    between atoms: O_8  and  C_9 
REMARK       I    between atoms: C_9  and  N_10 
REMARK    4  A    between atoms: C_24  and  O_25 
REMARK    5  A    between atoms: C_24  and  O_26 
ROOT
ATOM      1  N           0     139.021 130.521 146.009  0.00  0.00    -0.235 N 
ATOM      2  H           0     139.185 129.639 146.377  0.00  0.00     0.174 HD
ATOM      3  H           0     139.765 131.074 145.725  0.00  0.00     0.174 HD
ATOM      4  C           0     137.800 130.961 145.890  0.00  0.00     0.672 C 
ATOM      5  N           0     136.706 130.207 146.275  0.00  0.00    -0.218 N 
ATOM      6  C           0     135.502 130.906 146.718  0.00  0.00     0.151 C 
ATOM      7  C           0     135.050 131.966 145.733  0.00  0.00     0.180 C 
ATOM      8  N           0     134.364 131.313 144.597  0.00  0.00    -0.216 N 
ATOM      9  C           0     134.746 131.966 143.451  0.00  0.00     0.670 C 
ATOM     10  N           0     134.091 131.913 142.325  0.00  0.00    -0.235 N 
ATOM     11  H           0     133.278 131.387 142.261  0.00  0.00     0.174 HD
ATOM     12  H           0     134.416 132.399 141.552  0.00  0.00     0.174 HD
ATOM     13  C           0     136.187 132.734 145.080  0.00  0.00     0.217 C 
ATOM     14  N           0     135.903 132.682 143.637  0.00  0.00    -0.191 N 
ATOM     15  N           0     137.518 132.204 145.379  0.00  0.00    -0.179 N 
ATOM     16  C           0     138.473 133.281 145.083  0.00  0.00     0.106 C 
ATOM     17  C           0     139.017 133.123 143.662  0.00  0.00     0.033 C 
ATOM     18  C           0     137.698 134.610 145.206  0.00  0.00     0.098 C 
ATOM     19  C           0     136.240 134.200 145.555  0.00  0.00     0.210 C 
ATOM     20  H           0     136.737 129.237 146.251  0.00  0.00     0.178 HD
ATOM     21  H           0     133.755 130.560 144.652  0.00  0.00     0.178 HD
ATOM     22  H           0     136.439 133.086 142.937  0.00  0.00     0.180 HD
ENDROOT
BRANCH   6  23
ATOM     23  C           0     135.786 131.573 148.065  0.00  0.00     0.208 C 
BRANCH  23  24
ATOM     24  O           0     134.573 132.196 148.562  0.00  0.00    -0.302 OA
BRANCH  24  25
ATOM     25  C           0     133.667 131.465 149.238  0.00  0.00     0.358 C 
ATOM     26  N           0     132.360 131.786 149.177  0.00  0.00    -0.346 N 
ATOM     27  H           0     132.072 132.546 148.647  0.00  0.00     0.161 HD
ATOM     28  H           0     131.708 131.258 149.664  0.00  0.00     0.161 HD
ATOM     29  O           0     134.029 130.513 149.902  0.00  0.00    -0.239 OA
ENDBRANCH  24  25
ENDBRANCH  23  24
ENDBRANCH   6  23
BRANCH  19  30
ATOM     30  O           0     135.302 135.007 144.841  0.00  0.00    -0.362 OA
ATOM     31  H           0     134.427 134.636 145.014  0.00  0.00     0.213 HD
ENDBRANCH  19  30
BRANCH  19  32
ATOM     32  O           0     136.014 134.281 146.963  0.00  0.00    -0.362 OA
ATOM     33  H           0     135.097 134.013 147.114  0.00  0.00     0.213 HD
ENDBRANCH  19  32
TORSDOF 5
ENDMDL
MODEL 7
REMARK VINA RESULT:      -7.0      2.600      3.685
REMARK  5 active torsions:
REMARK  status: ('A' for Active; 'I' for Inactive)
REMARK    1  A    between atoms: C_6  and  C_7 
REMARK    2  A    between atoms: C_7  and  O_8 
REMARK    3  A    between atoms: O_8  and  C_9 
REMARK       I    between atoms: C_9  and  N_10 
REMARK    4  A    between atoms: C_24  and  O_25 
REMARK    5  A    between atoms: C_24  and  O_26 
ROOT
ATOM      1  N           0     139.465 135.502 145.950  0.00  0.00    -0.235 N 
ATOM      2  H           0     139.335 136.370 145.537  0.00  0.00     0.174 HD
ATOM      3  H           0     140.289 135.310 146.424  0.00  0.00     0.174 HD
ATOM      4  C           0     138.529 134.599 145.877  0.00  0.00     0.672 C 
ATOM      5  N           0     137.333 134.829 145.219  0.00  0.00    -0.218 N 
ATOM      6  C           0     136.637 133.691 144.625  0.00  0.00     0.151 C 
ATOM      7  C           0     136.451 132.548 145.604  0.00  0.00     0.180 C 
ATOM      8  N           0     135.335 132.871 146.520  0.00  0.00    -0.216 N 
ATOM      9  C           0     135.693 132.445 147.777  0.00  0.00     0.670 C 
ATOM     10  N           0     134.848 132.233 148.746  0.00  0.00    -0.235 N 
ATOM     11  H           0     133.899 132.377 148.603  0.00  0.00     0.174 HD
ATOM     12  H           0     135.167 131.933 149.611  0.00  0.00     0.174 HD
ATOM     13  C           0     137.632 132.326 146.534  0.00  0.00     0.217 C 
ATOM     14  N           0     137.051 132.270 147.884  0.00  0.00    -0.191 N 
ATOM     15  N           0     138.668 133.355 146.444  0.00  0.00    -0.179 N 
ATOM     16  C           0     139.889 132.772 147.019  0.00  0.00     0.106 C 
ATOM     17  C           0     140.006 133.156 148.496  0.00  0.00     0.033 C 
ATOM     18  C           0     139.759 131.241 146.880  0.00  0.00     0.098 C 
ATOM     19  C           0     138.370 131.008 146.222  0.00  0.00     0.210 C 
ATOM     20  H           0     136.967 135.725 145.155  0.00  0.00     0.178 HD
ATOM     21  H           0     134.502 133.304 146.278  0.00  0.00     0.178 HD
ATOM     22  H           0     137.541 132.130 148.709  0.00  0.00     0.180 HD
ENDROOT
BRANCH   6  23
ATOM     23  C           0     137.446 133.187 143.428  0.00  0.00     0.208 C 
BRANCH  23  24
ATOM     24  O           0     136.711 132.131 142.757  0.00  0.00    -0.302 OA
BRANCH  24  25
ATOM     25  C           0     135.611 132.426 142.039  0.00  0.00     0.358 C 
ATOM     26  N           0     135.702 133.248 140.974  0.00  0.00    -0.346 N 
ATOM     27  H           0     136.560 133.628 140.727  0.00  0.00     0.161 HD
ATOM     28  H           0     134.909 133.460 140.457  0.00  0.00     0.161 HD
ATOM     29  O           0     134.537 131.951 142.349  0.00  0.00    -0.239 OA
ENDBRANCH  24  25
ENDBRANCH  23  24
ENDBRANCH   6  23
BRANCH  19  30
ATOM     30  O           0     137.707 129.892 146.819  0.00  0.00    -0.362 OA
ATOM     31  H           0     138.396 129.270 147.089  0.00  0.00     0.213 HD
ENDBRANCH  19  30
BRANCH  19  32
ATOM     32  O           0     138.502 130.827 144.811  0.00  0.00    -0.362 OA
ATOM     33  H           0     138.295 131.677 144.400  0.00  0.00     0.213 HD
ENDBRANCH  19  32
TORSDOF 5
ENDMDL
MODEL 8
REMARK VINA RESULT:      -7.0      2.805      4.414
REMARK  5 active torsions:
REMARK  status: ('A' for Active; 'I' for Inactive)
REMARK    1  A    between atoms: C_6  and  C_7 
REMARK    2  A    between atoms: C_7  and  O_8 
REMARK    3  A    between atoms: O_8  and  C_9 
REMARK       I    between atoms: C_9  and  N_10 
REMARK    4  A    between atoms: C_24  and  O_25 
REMARK    5  A    between atoms: C_24  and  O_26 
ROOT
ATOM      1  N           0     134.046 131.747 148.365  0.00  0.00    -0.235 N 
ATOM      2  H           0     133.278 131.164 148.257  0.00  0.00     0.174 HD
ATOM      3  H           0     134.111 132.321 149.144  0.00  0.00     0.174 HD
ATOM      4  C           0     134.992 131.753 147.469  0.00  0.00     0.672 C 
ATOM      5  N           0     134.946 130.947 146.345  0.00  0.00    -0.218 N 
ATOM      6  C           0     135.616 131.408 145.133  0.00  0.00     0.151 C 
ATOM      7  C           0     137.052 131.825 145.384  0.00  0.00     0.180 C 
ATOM      8  N           0     137.895 130.615 145.501  0.00  0.00    -0.216 N 
ATOM      9  C           0     138.803 130.837 146.508  0.00  0.00     0.670 C 
ATOM     10  N           0     139.911 130.167 146.656  0.00  0.00    -0.235 N 
ATOM     11  H           0     140.137 129.459 146.032  0.00  0.00     0.174 HD
ATOM     12  H           0     140.509 130.375 147.390  0.00  0.00     0.174 HD
ATOM     13  C           0     137.269 132.548 146.703  0.00  0.00     0.217 C 
ATOM     14  N           0     138.399 131.854 147.339  0.00  0.00    -0.191 N 
ATOM     15  N           0     136.095 132.564 147.577  0.00  0.00    -0.179 N 
ATOM     16  C           0     136.308 133.651 148.544  0.00  0.00     0.106 C 
ATOM     17  C           0     136.930 133.096 149.827  0.00  0.00     0.033 C 
ATOM     18  C           0     137.274 134.654 147.880  0.00  0.00     0.098 C 
ATOM     19  C           0     137.613 134.036 146.495  0.00  0.00     0.210 C 
ATOM     20  H           0     134.481 130.096 146.364  0.00  0.00     0.178 HD
ATOM     21  H           0     137.821 129.811 144.964  0.00  0.00     0.178 HD
ATOM     22  H           0     138.794 132.076 148.196  0.00  0.00     0.180 HD
ENDROOT
BRANCH   6  23
ATOM     23  C           0     134.848 132.605 144.568  0.00  0.00     0.208 C 
BRANCH  23  24
ATOM     24  O           0     135.518 133.093 143.377  0.00  0.00    -0.302 OA
BRANCH  24  25
ATOM     25  C           0     135.045 132.773 142.158  0.00  0.00     0.358 C 
ATOM     26  N           0     135.728 133.134 141.054  0.00  0.00    -0.346 N 
ATOM     27  H           0     136.559 133.628 141.137  0.00  0.00     0.161 HD
ATOM     28  H           0     135.386 132.903 140.175  0.00  0.00     0.161 HD
ATOM     29  O           0     134.004 132.156 142.054  0.00  0.00    -0.239 OA
ENDBRANCH  24  25
ENDBRANCH  23  24
ENDBRANCH   6  23
BRANCH  19  30
ATOM     30  O           0     138.999 134.207 146.189  0.00  0.00    -0.362 OA
ATOM     31  H           0     139.421 133.347 146.318  0.00  0.00     0.213 HD
ENDBRANCH  19  30
BRANCH  19  32
ATOM     32  O           0     136.793 134.604 145.471  0.00  0.00    -0.362 OA
ATOM     33  H           0     137.255 134.466 144.634  0.00  0.00     0.213 HD
ENDBRANCH  19  32
TORSDOF 5
ENDMDL
MODEL 9
REMARK VINA RESULT:      -6.8      3.293      5.255
REMARK  5 active torsions:
REMARK  status: ('A' for Active; 'I' for Inactive)
REMARK    1  A    between atoms: C_6  and  C_7 
REMARK    2  A    between atoms: C_7  and  O_8 
REMARK    3  A    between atoms: O_8  and  C_9 
REMARK       I    between atoms: C_9  and  N_10 
REMARK    4  A    between atoms: C_24  and  O_25 
REMARK    5  A    between atoms: C_24  and  O_26 
ROOT
ATOM      1  N           0     140.539 131.191 146.341  0.00  0.00    -0.235 N 
ATOM      2  H           0     141.252 130.888 145.757  0.00  0.00     0.174 HD
ATOM      3  H           0     140.328 130.694 147.147  0.00  0.00     0.174 HD
ATOM      4  C           0     139.868 132.269 146.047  0.00  0.00     0.672 C 
ATOM      5  N           0     140.137 133.016 144.913  0.00  0.00    -0.218 N 
ATOM      6  C           0     139.044 133.769 144.303  0.00  0.00     0.151 C 
ATOM      7  C           0     138.307 134.637 145.304  0.00  0.00     0.180 C 
ATOM      8  N           0     139.110 135.848 145.580  0.00  0.00    -0.216 N 
ATOM      9  C           0     139.012 136.114 146.925  0.00  0.00     0.670 C 
ATOM     10  N           0     139.277 137.271 147.463  0.00  0.00    -0.235 N 
ATOM     11  H           0     139.565 138.011 146.906  0.00  0.00     0.174 HD
ATOM     12  H           0     139.186 137.392 148.421  0.00  0.00     0.174 HD
ATOM     13  C           0     138.130 133.998 146.671  0.00  0.00     0.217 C 
ATOM     14  N           0     138.599 135.011 147.630  0.00  0.00    -0.191 N 
ATOM     15  N           0     138.848 132.735 146.840  0.00  0.00    -0.179 N 
ATOM     16  C           0     138.222 132.045 147.978  0.00  0.00     0.106 C 
ATOM     17  C           0     138.992 132.352 149.264  0.00  0.00     0.033 C 
ATOM     18  C           0     136.780 132.585 148.085  0.00  0.00     0.098 C 
ATOM     19  C           0     136.656 133.644 146.956  0.00  0.00     0.210 C 
ATOM     20  H           0     141.029 133.038 144.533  0.00  0.00     0.178 HD
ATOM     21  H           0     139.616 136.361 144.930  0.00  0.00     0.178 HD
ATOM     22  H           0     138.611 134.917 148.595  0.00  0.00     0.180 HD
ENDROOT
BRANCH   6  23
ATOM     23  C           0     138.052 132.784 143.681  0.00  0.00     0.208 C 
BRANCH  23  24
ATOM     24  O           0     137.057 133.516 142.918  0.00  0.00    -0.302 OA
BRANCH  24  25
ATOM     25  C           0     136.029 132.859 142.347  0.00  0.00     0.358 C 
ATOM     26  N           0     135.668 133.145 141.080  0.00  0.00    -0.346 N 
ATOM     27  H           0     136.147 133.825 140.581  0.00  0.00     0.161 HD
ATOM     28  H           0     134.927 132.672 140.669  0.00  0.00     0.161 HD
ATOM     29  O           0     135.429 132.009 142.973  0.00  0.00    -0.239 OA
ENDBRANCH  24  25
ENDBRANCH  23  24
ENDBRANCH   6  23
BRANCH  19  30
ATOM     30  O           0     135.930 134.788 147.410  0.00  0.00    -0.362 OA
ATOM     31  H           0     135.674 134.611 148.325  0.00  0.00     0.213 HD
ENDBRANCH  19  30
BRANCH  19  32
ATOM     32  O           0     136.042 133.080 145.795  0.00  0.00    -0.362 OA
ATOM     33  H           0     136.309 132.151 145.761  0.00  0.00     0.213 HD
ENDBRANCH  19  32
TORSDOF 5
ENDMDL
