# created with PyMOL 2.3.4
@<TRIPOS>MOLECULE
ligand_out_0001
33 35 1                 
SMALL
USER_CHARGES
@<TRIPOS>ATOM
1	   N	135.522	136.713	143.292	N.3	1	UNK0	-0.235	
2	   N	134.024	134.900	143.269	N.3	1	UNK0	-0.218	
3	   N	134.091	132.271	144.882	N.3	1	UNK0	-0.216	
4	   N	134.910	131.655	147.015	N.3	1	UNK0	-0.235	
5	   N	136.214	132.854	145.446	N.3	1	UNK0	-0.191	
6	   N	136.288	134.538	143.708	N.3	1	UNK0	-0.179	
7	   N	133.573	136.021	139.964	N.pl3	1	UNK0	-0.346	
8	   C	135.290	135.437	143.419	C.3	1	UNK0	0.672	
9	   C	133.905	133.524	142.796	C.3	1	UNK0	0.151	
10	   C	134.759	132.558	143.594	C.3	1	UNK0	0.180	
11	   C	135.063	132.225	145.853	C.3	1	UNK0	0.670	
12	   C	136.112	133.116	144.003	C.3	1	UNK0	0.217	
13	   C	137.736	134.793	143.721	C.3	1	UNK0	0.106	
14	   C	138.167	135.295	145.100	C.3	1	UNK0	0.033	
15	   C	138.427	133.448	143.409	C.3	1	UNK0	0.098	
16	   C	137.270	132.422	143.257	C.3	1	UNK0	0.210	
17	   C	134.337	133.466	141.329	C.2	1	UNK0	0.208	
18	   C	133.293	134.764	139.568	C.2	1	UNK0	0.358	
19	   O	133.203	133.775	140.477	O.2	1	UNK0	-0.302	
20	   O	133.122	134.522	138.389	O.co2	1	UNK0	-0.239	
21	   O	137.610	131.179	143.875	O.2	1	UNK0	-0.362	
22	   O	136.939	132.231	141.880	O.2	1	UNK0	-0.362	
23	   H	134.794	137.320	143.085	 H	1	UNK0	0.174	
24	   H	136.421	137.057	143.409	 H	1	UNK0	0.174	
25	   H	134.068	131.228	147.239	 H	1	UNK0	0.174	
26	   H	135.638	131.658	147.656	 H	1	UNK0	0.174	
27	   H	133.234	135.426	143.473	 H	1	UNK0	0.178	
28	   H	133.139	132.139	145.018	 H	1	UNK0	0.178	
29	   H	136.966	133.082	146.014	 H	1	UNK0	0.180	
30	   H	133.708	136.214	140.905	 H	1	UNK0	0.161	
31	   H	133.637	136.733	139.308	 H	1	UNK0	0.161	
32	   H	136.862	130.933	144.435	 H	1	UNK0	0.213	
33	   H	136.441	133.012	141.602	 H	1	UNK0	0.213	
@<TRIPOS>BOND
1 1 8 1
2 1 23 1
3 1 24 1
4 2 9 1
5 2 27 1
6 3 11 1
7 3 28 1
8 4 25 1
9 4 26 1
10 5 29 1
11 6 13 1
12 7 30 1
13 7 31 1
14 2 8 1
15 6 8 1
16 9 10 1
17 9 17 1
18 3 10 1
19 10 12 1
20 4 11 1
21 5 11 1
22 5 12 1
23 6 12 1
24 12 16 1
25 13 14 1
26 13 15 1
27 15 16 1
28 16 21 2
29 16 22 2
30 17 19 2
31 7 18 1
32 18 20 2
33 18 19 2
34 21 32 1
35 22 33 1
@<TRIPOS>SUBSTRUCTURE
1	UNK0	1	GROUP	1 ****	UNK
