# created with PyMOL 2.3.4
@<TRIPOS>MOLECULE
ligand_out_0001
32 34 1                 
SMALL
USER_CHARGES
@<TRIPOS>ATOM
1	   N	135.062	136.788	143.167	N.3	1	UNK0	-0.235	
2	   N	133.795	134.810	143.028	N.3	1	UNK0	-0.218	
3	   N	134.084	132.200	144.638	N.3	1	UNK0	-0.216	
4	   N	134.850	131.660	146.811	N.3	1	UNK0	-0.235	
5	   N	136.094	133.010	145.320	N.3	1	UNK0	-0.191	
6	   N	136.053	134.712	143.602	N.3	1	UNK0	-0.183	
7	   N	133.531	136.037	139.855	N.pl3	1	UNK0	-0.346	
8	   C	134.977	135.490	143.264	C.3	1	UNK0	0.672	
9	   C	133.873	133.435	142.544	C.3	1	UNK0	0.151	
10	   C	134.785	132.568	143.391	C.3	1	UNK0	0.180	
11	   C	135.000	132.253	145.660	C.3	1	UNK0	0.670	
12	   C	136.042	133.274	143.872	C.3	1	UNK0	0.217	
13	   C	137.465	135.119	143.713	C.3	1	UNK0	0.150	
14	   C	138.253	133.944	143.085	C.3	1	UNK0	0.093	
15	   C	137.308	132.721	143.195	C.3	1	UNK0	0.209	
16	   C	134.399	133.447	141.107	C.2	1	UNK0	0.208	
17	   C	133.394	134.791	139.359	C.2	1	UNK0	0.358	
18	   O	133.309	133.739	140.195	O.2	1	UNK0	-0.302	
19	   O	133.347	134.618	138.157	O.co2	1	UNK0	-0.239	
20	   O	137.904	131.701	143.998	O.2	1	UNK0	-0.362	
21	   O	136.995	132.215	141.896	O.2	1	UNK0	-0.362	
22	   H	134.281	137.308	142.921	 H	1	UNK0	0.174	
23	   H	135.906	137.233	143.342	 H	1	UNK0	0.174	
24	   H	134.051	131.139	146.987	 H	1	UNK0	0.174	
25	   H	135.538	131.738	147.490	 H	1	UNK0	0.174	
26	   H	132.937	135.235	143.182	 H	1	UNK0	0.178	
27	   H	133.147	131.962	144.722	 H	1	UNK0	0.178	
28	   H	136.784	133.315	145.929	 H	1	UNK0	0.180	
29	   H	133.569	136.176	140.815	 H	1	UNK0	0.161	
30	   H	133.591	136.795	139.253	 H	1	UNK0	0.161	
31	   H	137.690	131.910	144.918	 H	1	UNK0	0.213	
32	   H	137.834	131.971	141.481	 H	1	UNK0	0.213	
@<TRIPOS>BOND
1 1 8 1
2 1 22 1
3 1 23 1
4 2 9 1
5 2 26 1
6 3 11 1
7 3 27 1
8 4 24 1
9 4 25 1
10 5 28 1
11 6 13 1
12 7 29 1
13 7 30 1
14 2 8 1
15 6 8 1
16 9 10 1
17 9 16 1
18 3 10 1
19 10 12 1
20 4 11 1
21 5 11 1
22 5 12 1
23 6 12 1
24 12 15 1
25 13 14 1
26 14 15 1
27 15 20 2
28 15 21 2
29 16 18 2
30 7 17 1
31 17 19 2
32 17 18 2
33 20 31 1
34 21 32 1
@<TRIPOS>SUBSTRUCTURE
1	UNK0	1	GROUP	1 ****	UNK
