MODEL 1
REMARK VINA RESULT:      -7.9      0.000      0.000
REMARK  5 active torsions:
REMARK  status: ('A' for Active; 'I' for Inactive)
REMARK    1  A    between atoms: C_6  and  C_7 
REMARK    2  A    between atoms: C_7  and  O_8 
REMARK    3  A    between atoms: O_8  and  C_9 
REMARK       I    between atoms: C_9  and  N_10 
REMARK    4  A    between atoms: C_23  and  O_24 
REMARK    5  A    between atoms: C_23  and  O_25 
ROOT
ATOM      1  N           0     135.062 136.788 143.167  0.00  0.00    -0.235 N 
ATOM      2  H           0     134.281 137.308 142.921  0.00  0.00     0.174 HD
ATOM      3  H           0     135.906 137.233 143.342  0.00  0.00     0.174 HD
ATOM      4  C           0     134.977 135.490 143.264  0.00  0.00     0.672 C 
ATOM      5  N           0     133.795 134.810 143.028  0.00  0.00    -0.218 N 
ATOM      6  C           0     133.873 133.435 142.544  0.00  0.00     0.151 C 
ATOM      7  C           0     134.785 132.568 143.391  0.00  0.00     0.180 C 
ATOM      8  N           0     134.084 132.200 144.638  0.00  0.00    -0.216 N 
ATOM      9  C           0     135.000 132.253 145.660  0.00  0.00     0.670 C 
ATOM     10  N           0     134.850 131.660 146.811  0.00  0.00    -0.235 N 
ATOM     11  H           0     134.051 131.139 146.987  0.00  0.00     0.174 HD
ATOM     12  H           0     135.538 131.738 147.490  0.00  0.00     0.174 HD
ATOM     13  C           0     136.042 133.274 143.872  0.00  0.00     0.217 C 
ATOM     14  N           0     136.094 133.010 145.320  0.00  0.00    -0.191 N 
ATOM     15  N           0     136.053 134.712 143.602  0.00  0.00    -0.183 N 
ATOM     16  C           0     137.465 135.119 143.713  0.00  0.00     0.150 C 
ATOM     17  C           0     138.253 133.944 143.085  0.00  0.00     0.093 C 
ATOM     18  C           0     137.308 132.721 143.195  0.00  0.00     0.209 C 
ATOM     19  H           0     132.937 135.235 143.182  0.00  0.00     0.178 HD
ATOM     20  H           0     133.147 131.962 144.722  0.00  0.00     0.178 HD
ATOM     21  H           0     136.784 133.315 145.929  0.00  0.00     0.180 HD
ENDROOT
BRANCH   6  22
ATOM     22  C           0     134.399 133.447 141.107  0.00  0.00     0.208 C 
BRANCH  22  23
ATOM     23  O           0     133.309 133.739 140.195  0.00  0.00    -0.302 OA
BRANCH  23  24
ATOM     24  C           0     133.394 134.791 139.359  0.00  0.00     0.358 C 
ATOM     25  N           0     133.531 136.037 139.855  0.00  0.00    -0.346 N 
ATOM     26  H           0     133.569 136.176 140.815  0.00  0.00     0.161 HD
ATOM     27  H           0     133.591 136.795 139.253  0.00  0.00     0.161 HD
ATOM     28  O           0     133.347 134.618 138.157  0.00  0.00    -0.239 OA
ENDBRANCH  23  24
ENDBRANCH  22  23
ENDBRANCH   6  22
BRANCH  18  29
ATOM     29  O           0     137.904 131.701 143.998  0.00  0.00    -0.362 OA
ATOM     30  H           0     137.690 131.910 144.918  0.00  0.00     0.213 HD
ENDBRANCH  18  29
BRANCH  18  31
ATOM     31  O           0     136.995 132.215 141.896  0.00  0.00    -0.362 OA
ATOM     32  H           0     137.834 131.971 141.481  0.00  0.00     0.213 HD
ENDBRANCH  18  31
TORSDOF 5
ENDMDL
MODEL 2
REMARK VINA RESULT:      -7.5      1.915      5.622
REMARK  5 active torsions:
REMARK  status: ('A' for Active; 'I' for Inactive)
REMARK    1  A    between atoms: C_6  and  C_7 
REMARK    2  A    between atoms: C_7  and  O_8 
REMARK    3  A    between atoms: O_8  and  C_9 
REMARK       I    between atoms: C_9  and  N_10 
REMARK    4  A    between atoms: C_23  and  O_24 
REMARK    5  A    between atoms: C_23  and  O_25 
ROOT
ATOM      1  N           0     134.754 131.903 146.530  0.00  0.00    -0.235 N 
ATOM      2  H           0     134.986 131.953 147.470  0.00  0.00     0.174 HD
ATOM      3  H           0     134.085 131.267 146.229  0.00  0.00     0.174 HD
ATOM      4  C           0     135.336 132.691 145.670  0.00  0.00     0.672 C 
ATOM      5  N           0     136.292 133.617 146.049  0.00  0.00    -0.218 N 
ATOM      6  C           0     137.313 133.995 145.076  0.00  0.00     0.151 C 
ATOM      7  C           0     136.722 134.409 143.742  0.00  0.00     0.180 C 
ATOM      8  N           0     136.174 135.777 143.856  0.00  0.00    -0.216 N 
ATOM      9  C           0     134.998 135.812 143.148  0.00  0.00     0.670 C 
ATOM     10  N           0     134.430 136.906 142.724  0.00  0.00    -0.235 N 
ATOM     11  H           0     134.840 137.766 142.906  0.00  0.00     0.174 HD
ATOM     12  H           0     133.598 136.860 142.228  0.00  0.00     0.174 HD
ATOM     13  C           0     135.531 133.573 143.303  0.00  0.00     0.217 C 
ATOM     14  N           0     134.494 134.552 142.940  0.00  0.00    -0.191 N 
ATOM     15  N           0     135.045 132.652 144.331  0.00  0.00    -0.183 N 
ATOM     16  C           0     134.234 131.654 143.610  0.00  0.00     0.150 C 
ATOM     17  C           0     135.007 131.415 142.290  0.00  0.00     0.093 C 
ATOM     18  C           0     135.864 132.690 142.088  0.00  0.00     0.209 C 
ATOM     19  H           0     136.284 134.004 146.938  0.00  0.00     0.178 HD
ATOM     20  H           0     136.572 136.516 144.342  0.00  0.00     0.178 HD
ATOM     21  H           0     133.607 134.343 142.608  0.00  0.00     0.180 HD
ENDROOT
BRANCH   6  22
ATOM     22  C           0     138.248 132.806 144.853  0.00  0.00     0.208 C 
BRANCH  22  23
ATOM     23  O           0     138.756 132.343 146.132  0.00  0.00    -0.302 OA
BRANCH  23  24
ATOM     24  C           0     138.657 131.042 146.465  0.00  0.00     0.358 C 
ATOM     25  N           0     139.769 130.290 146.582  0.00  0.00    -0.346 N 
ATOM     26  H           0     140.642 130.685 146.426  0.00  0.00     0.161 HD
ATOM     27  H           0     139.698 129.352 146.822  0.00  0.00     0.161 HD
ATOM     28  O           0     137.565 130.547 146.661  0.00  0.00    -0.239 OA
ENDBRANCH  23  24
ENDBRANCH  22  23
ENDBRANCH   6  22
BRANCH  18  29
ATOM     29  O           0     135.500 133.347 140.873  0.00  0.00    -0.362 OA
ATOM     30  H           0     134.560 133.564 140.944  0.00  0.00     0.213 HD
ENDBRANCH  18  29
BRANCH  18  31
ATOM     31  O           0     137.255 132.360 142.080  0.00  0.00    -0.362 OA
ATOM     32  H           0     137.313 131.396 142.019  0.00  0.00     0.213 HD
ENDBRANCH  18  31
TORSDOF 5
ENDMDL
MODEL 3
REMARK VINA RESULT:      -6.8      2.376      5.136
REMARK  5 active torsions:
REMARK  status: ('A' for Active; 'I' for Inactive)
REMARK    1  A    between atoms: C_6  and  C_7 
REMARK    2  A    between atoms: C_7  and  O_8 
REMARK    3  A    between atoms: O_8  and  C_9 
REMARK       I    between atoms: C_9  and  N_10 
REMARK    4  A    between atoms: C_23  and  O_24 
REMARK    5  A    between atoms: C_23  and  O_25 
ROOT
ATOM      1  N           0     136.032 134.638 146.693  0.00  0.00    -0.235 N 
ATOM      2  H           0     136.480 135.463 146.934  0.00  0.00     0.174 HD
ATOM      3  H           0     135.586 134.111 147.375  0.00  0.00     0.174 HD
ATOM      4  C           0     136.025 134.237 145.453  0.00  0.00     0.672 C 
ATOM      5  N           0     136.642 134.954 144.443  0.00  0.00    -0.218 N 
ATOM      6  C           0     137.142 134.224 143.282  0.00  0.00     0.151 C 
ATOM      7  C           0     136.098 133.308 142.673  0.00  0.00     0.180 C 
ATOM      8  N           0     135.143 134.115 141.886  0.00  0.00    -0.216 N 
ATOM      9  C           0     133.888 133.598 142.099  0.00  0.00     0.670 C 
ATOM     10  N           0     132.867 133.806 141.316  0.00  0.00    -0.235 N 
ATOM     11  H           0     132.969 134.357 140.523  0.00  0.00     0.174 HD
ATOM     12  H           0     132.008 133.410 141.525  0.00  0.00     0.174 HD
ATOM     13  C           0     135.223 132.599 143.694  0.00  0.00     0.217 C 
ATOM     14  N           0     133.842 132.835 143.239  0.00  0.00    -0.191 N 
ATOM     15  N           0     135.410 133.075 145.065  0.00  0.00    -0.183 N 
ATOM     16  C           0     134.854 132.014 145.925  0.00  0.00     0.150 C 
ATOM     17  C           0     135.264 130.697 145.224  0.00  0.00     0.093 C 
ATOM     18  C           0     135.505 131.088 143.743  0.00  0.00     0.209 C 
ATOM     19  H           0     136.739 135.917 144.505  0.00  0.00     0.178 HD
ATOM     20  H           0     135.362 134.873 141.320  0.00  0.00     0.178 HD
ATOM     21  H           0     133.038 132.505 143.669  0.00  0.00     0.180 HD
ENDROOT
BRANCH   6  22
ATOM     22  C           0     138.347 133.383 143.709  0.00  0.00     0.208 C 
BRANCH  22  23
ATOM     23  O           0     138.240 133.066 145.121  0.00  0.00    -0.302 OA
BRANCH  23  24
ATOM     24  C           0     139.043 132.131 145.665  0.00  0.00     0.358 C 
ATOM     25  N           0     138.633 130.850 145.736  0.00  0.00    -0.346 N 
ATOM     26  H           0     137.759 130.600 145.396  0.00  0.00     0.161 HD
ATOM     27  H           0     139.211 130.176 146.128  0.00  0.00     0.161 HD
ATOM     28  O           0     140.138 132.444 146.090  0.00  0.00    -0.239 OA
ENDBRANCH  23  24
ENDBRANCH  22  23
ENDBRANCH   6  22
BRANCH  18  29
ATOM     29  O           0     134.606 130.379 142.889  0.00  0.00    -0.362 OA
ATOM     30  H           0     134.217 129.669 143.419  0.00  0.00     0.213 HD
ENDBRANCH  18  29
BRANCH  18  31
ATOM     31  O           0     136.860 130.823 143.373  0.00  0.00    -0.362 OA
ATOM     32  H           0     137.418 131.344 143.967  0.00  0.00     0.213 HD
ENDBRANCH  18  31
TORSDOF 5
ENDMDL
MODEL 4
REMARK VINA RESULT:      -6.8      2.897      4.771
REMARK  5 active torsions:
REMARK  status: ('A' for Active; 'I' for Inactive)
REMARK    1  A    between atoms: C_6  and  C_7 
REMARK    2  A    between atoms: C_7  and  O_8 
REMARK    3  A    between atoms: O_8  and  C_9 
REMARK       I    between atoms: C_9  and  N_10 
REMARK    4  A    between atoms: C_23  and  O_24 
REMARK    5  A    between atoms: C_23  and  O_25 
ROOT
ATOM      1  N           0     139.632 130.586 145.995  0.00  0.00    -0.235 N 
ATOM      2  H           0     140.387 130.738 145.406  0.00  0.00     0.174 HD
ATOM      3  H           0     139.660 129.863 146.642  0.00  0.00     0.174 HD
ATOM      4  C           0     138.582 131.356 145.924  0.00  0.00     0.672 C 
ATOM      5  N           0     138.496 132.403 145.023  0.00  0.00    -0.218 N 
ATOM      6  C           0     137.174 132.802 144.550  0.00  0.00     0.151 C 
ATOM      7  C           0     136.196 133.041 145.684  0.00  0.00     0.180 C 
ATOM      8  N           0     136.484 134.350 146.306  0.00  0.00    -0.216 N 
ATOM      9  C           0     136.331 134.206 147.664  0.00  0.00     0.670 C 
ATOM     10  N           0     136.149 135.198 148.490  0.00  0.00    -0.235 N 
ATOM     11  H           0     136.113 136.107 148.154  0.00  0.00     0.174 HD
ATOM     12  H           0     136.047 135.026 149.439  0.00  0.00     0.174 HD
ATOM     13  C           0     136.323 132.054 146.833  0.00  0.00     0.217 C 
ATOM     14  N           0     136.395 132.889 148.043  0.00  0.00    -0.191 N 
ATOM     15  N           0     137.490 131.177 146.731  0.00  0.00    -0.183 N 
ATOM     16  C           0     137.206 130.045 147.633  0.00  0.00     0.150 C 
ATOM     17  C           0     135.693 129.777 147.447  0.00  0.00     0.093 C 
ATOM     18  C           0     135.110 131.112 146.918  0.00  0.00     0.209 C 
ATOM     19  H           0     139.294 132.860 144.714  0.00  0.00     0.178 HD
ATOM     20  H           0     136.735 135.164 145.841  0.00  0.00     0.178 HD
ATOM     21  H           0     136.471 132.563 148.954  0.00  0.00     0.180 HD
ENDROOT
BRANCH   6  22
ATOM     22  C           0     136.620 131.700 143.645  0.00  0.00     0.208 C 
BRANCH  22  23
ATOM     23  O           0     135.306 132.083 143.164  0.00  0.00    -0.302 OA
BRANCH  23  24
ATOM     24  C           0     135.179 133.086 142.274  0.00  0.00     0.358 C 
ATOM     25  N           0     135.891 133.065 141.130  0.00  0.00    -0.346 N 
ATOM     26  H           0     136.494 132.327 140.946  0.00  0.00     0.161 HD
ATOM     27  H           0     135.800 133.788 140.489  0.00  0.00     0.161 HD
ATOM     28  O           0     134.423 134.009 142.503  0.00  0.00    -0.239 OA
ENDBRANCH  23  24
ENDBRANCH  22  23
ENDBRANCH   6  22
BRANCH  18  29
ATOM     29  O           0     134.137 131.626 147.831  0.00  0.00    -0.362 OA
ATOM     30  H           0     134.294 131.190 148.680  0.00  0.00     0.213 HD
ENDBRANCH  18  29
BRANCH  18  31
ATOM     31  O           0     134.532 130.926 145.624  0.00  0.00    -0.362 OA
ATOM     32  H           0     134.897 131.617 145.054  0.00  0.00     0.213 HD
ENDBRANCH  18  31
TORSDOF 5
ENDMDL
MODEL 5
REMARK VINA RESULT:      -6.8      5.305      9.811
REMARK  5 active torsions:
REMARK  status: ('A' for Active; 'I' for Inactive)
REMARK    1  A    between atoms: C_6  and  C_7 
REMARK    2  A    between atoms: C_7  and  O_8 
REMARK    3  A    between atoms: O_8  and  C_9 
REMARK       I    between atoms: C_9  and  N_10 
REMARK    4  A    between atoms: C_23  and  O_24 
REMARK    5  A    between atoms: C_23  and  O_25 
ROOT
ATOM      1  N           0     131.418 132.195 134.942  0.00  0.00    -0.235 N 
ATOM      2  H           0     130.815 131.845 135.616  0.00  0.00     0.174 HD
ATOM      3  H           0     131.812 131.597 134.287  0.00  0.00     0.174 HD
ATOM      4  C           0     131.696 133.468 134.912  0.00  0.00     0.672 C 
ATOM      5  N           0     131.155 134.362 135.821  0.00  0.00    -0.218 N 
ATOM      6  C           0     131.920 135.561 136.151  0.00  0.00     0.151 C 
ATOM      7  C           0     132.376 136.320 134.920  0.00  0.00     0.180 C 
ATOM      8  N           0     131.234 137.074 134.363  0.00  0.00    -0.216 N 
ATOM      9  C           0     131.308 136.988 132.994  0.00  0.00     0.670 C 
ATOM     10  N           0     130.706 137.804 132.175  0.00  0.00    -0.235 N 
ATOM     11  H           0     130.163 138.528 132.524  0.00  0.00     0.174 HD
ATOM     12  H           0     130.801 137.687 131.217  0.00  0.00     0.174 HD
ATOM     13  C           0     132.822 135.430 133.771  0.00  0.00     0.217 C 
ATOM     14  N           0     132.096 135.938 132.595  0.00  0.00    -0.191 N 
ATOM     15  N           0     132.546 134.009 133.983  0.00  0.00    -0.183 N 
ATOM     16  C           0     133.417 133.296 133.030  0.00  0.00     0.150 C 
ATOM     17  C           0     134.737 134.104 133.039  0.00  0.00     0.093 C 
ATOM     18  C           0     134.338 135.520 133.528  0.00  0.00     0.209 C 
ATOM     19  H           0     130.291 134.195 136.227  0.00  0.00     0.178 HD
ATOM     20  H           0     130.554 137.545 134.871  0.00  0.00     0.178 HD
ATOM     21  H           0     132.165 135.591 131.692  0.00  0.00     0.180 HD
ENDROOT
BRANCH   6  22
ATOM     22  C           0     133.151 135.153 136.963  0.00  0.00     0.208 C 
BRANCH  22  23
ATOM     23  O           0     132.732 134.416 138.141  0.00  0.00    -0.302 OA
BRANCH  23  24
ATOM     24  C           0     133.066 134.860 139.368  0.00  0.00     0.358 C 
ATOM     25  N           0     133.612 136.083 139.516  0.00  0.00    -0.346 N 
ATOM     26  H           0     133.765 136.644 138.739  0.00  0.00     0.161 HD
ATOM     27  H           0     133.853 136.403 140.400  0.00  0.00     0.161 HD
ATOM     28  O           0     132.874 134.158 140.341  0.00  0.00    -0.239 OA
ENDBRANCH  23  24
ENDBRANCH  22  23
ENDBRANCH   6  22
BRANCH  18  29
ATOM     29  O           0     134.630 136.494 132.524  0.00  0.00    -0.362 OA
ATOM     30  H           0     134.546 136.048 131.670  0.00  0.00     0.213 HD
ENDBRANCH  18  29
BRANCH  18  31
ATOM     31  O           0     135.018 135.837 134.744  0.00  0.00    -0.362 OA
ATOM     32  H           0     134.726 135.191 135.403  0.00  0.00     0.213 HD
ENDBRANCH  18  31
TORSDOF 5
ENDMDL
MODEL 6
REMARK VINA RESULT:      -6.7      3.018      4.498
REMARK  5 active torsions:
REMARK  status: ('A' for Active; 'I' for Inactive)
REMARK    1  A    between atoms: C_6  and  C_7 
REMARK    2  A    between atoms: C_7  and  O_8 
REMARK    3  A    between atoms: O_8  and  C_9 
REMARK       I    between atoms: C_9  and  N_10 
REMARK    4  A    between atoms: C_23  and  O_24 
REMARK    5  A    between atoms: C_23  and  O_25 
ROOT
ATOM      1  N           0     136.104 134.627 147.303  0.00  0.00    -0.235 N 
ATOM      2  H           0     135.655 135.356 146.848  0.00  0.00     0.174 HD
ATOM      3  H           0     136.572 134.791 148.138  0.00  0.00     0.174 HD
ATOM      4  C           0     136.076 133.426 146.798  0.00  0.00     0.672 C 
ATOM      5  N           0     135.419 133.140 145.614  0.00  0.00    -0.218 N 
ATOM      6  C           0     135.910 132.031 144.801  0.00  0.00     0.151 C 
ATOM      7  C           0     136.077 130.751 145.598  0.00  0.00     0.180 C 
ATOM      8  N           0     134.750 130.140 145.819  0.00  0.00    -0.216 N 
ATOM      9  C           0     134.731 129.642 147.099  0.00  0.00     0.670 C 
ATOM     10  N           0     133.892 128.738 147.521  0.00  0.00    -0.235 N 
ATOM     11  H           0     133.226 128.374 146.916  0.00  0.00     0.174 HD
ATOM     12  H           0     133.934 128.429 148.440  0.00  0.00     0.174 HD
ATOM     13  C           0     136.622 130.960 147.001  0.00  0.00     0.217 C 
ATOM     14  N           0     135.706 130.213 147.879  0.00  0.00    -0.191 N 
ATOM     15  N           0     136.700 132.365 147.402  0.00  0.00    -0.183 N 
ATOM     16  C           0     137.633 132.395 148.543  0.00  0.00     0.150 C 
ATOM     17  C           0     138.726 131.363 148.172  0.00  0.00     0.093 C 
ATOM     18  C           0     138.052 130.412 147.151  0.00  0.00     0.209 C 
ATOM     19  H           0     134.652 133.662 145.332  0.00  0.00     0.178 HD
ATOM     20  H           0     134.023 130.097 145.177  0.00  0.00     0.178 HD
ATOM     21  H           0     135.780 130.135 148.843  0.00  0.00     0.180 HD
ENDROOT
BRANCH   6  22
ATOM     22  C           0     137.263 132.419 144.202  0.00  0.00     0.208 C 
BRANCH  22  23
ATOM     23  O           0     137.058 133.336 143.096  0.00  0.00    -0.302 OA
BRANCH  23  24
ATOM     24  C           0     137.524 134.597 143.171  0.00  0.00     0.358 C 
ATOM     25  N           0     136.707 135.595 143.561  0.00  0.00    -0.346 N 
ATOM     26  H           0     135.783 135.405 143.788  0.00  0.00     0.161 HD
ATOM     27  H           0     137.042 136.504 143.614  0.00  0.00     0.161 HD
ATOM     28  O           0     138.681 134.835 142.887  0.00  0.00    -0.239 OA
ENDBRANCH  23  24
ENDBRANCH  22  23
ENDBRANCH   6  22
BRANCH  18  29
ATOM     29  O           0     138.028 129.076 147.656  0.00  0.00    -0.362 OA
ATOM     30  H           0     138.919 128.717 147.539  0.00  0.00     0.213 HD
ENDBRANCH  18  29
BRANCH  18  31
ATOM     31  O           0     138.736 130.461 145.897  0.00  0.00    -0.362 OA
ATOM     32  H           0     138.058 130.418 145.208  0.00  0.00     0.213 HD
ENDBRANCH  18  31
TORSDOF 5
ENDMDL
MODEL 7
REMARK VINA RESULT:      -6.6      2.727      4.535
REMARK  5 active torsions:
REMARK  status: ('A' for Active; 'I' for Inactive)
REMARK    1  A    between atoms: C_6  and  C_7 
REMARK    2  A    between atoms: C_7  and  O_8 
REMARK    3  A    between atoms: O_8  and  C_9 
REMARK       I    between atoms: C_9  and  N_10 
REMARK    4  A    between atoms: C_23  and  O_24 
REMARK    5  A    between atoms: C_23  and  O_25 
ROOT
ATOM      1  N           0     134.770 129.860 145.218  0.00  0.00    -0.235 N 
ATOM      2  H           0     134.432 129.462 144.401  0.00  0.00     0.174 HD
ATOM      3  H           0     134.497 129.505 146.079  0.00  0.00     0.174 HD
ATOM      4  C           0     135.593 130.869 145.162  0.00  0.00     0.672 C 
ATOM      5  N           0     136.016 131.408 143.959  0.00  0.00    -0.218 N 
ATOM      6  C           0     136.384 132.821 143.925  0.00  0.00     0.151 C 
ATOM      7  C           0     137.373 133.193 145.012  0.00  0.00     0.180 C 
ATOM      8  N           0     138.721 132.725 144.623  0.00  0.00    -0.216 N 
ATOM      9  C           0     139.333 132.241 145.753  0.00  0.00     0.670 C 
ATOM     10  N           0     140.621 132.084 145.878  0.00  0.00    -0.235 N 
ATOM     11  H           0     141.211 132.316 145.143  0.00  0.00     0.174 HD
ATOM     12  H           0     140.989 131.737 146.705  0.00  0.00     0.174 HD
ATOM     13  C           0     137.119 132.508 146.345  0.00  0.00     0.217 C 
ATOM     14  N           0     138.422 131.943 146.735  0.00  0.00    -0.191 N 
ATOM     15  N           0     136.092 131.468 146.289  0.00  0.00    -0.183 N 
ATOM     16  C           0     135.677 131.253 147.687  0.00  0.00     0.150 C 
ATOM     17  C           0     135.679 132.671 148.309  0.00  0.00     0.093 C 
ATOM     18  C           0     136.638 133.500 147.418  0.00  0.00     0.209 C 
ATOM     19  H           0     136.068 130.861 143.160  0.00  0.00     0.178 HD
ATOM     20  H           0     139.103 132.755 143.732  0.00  0.00     0.178 HD
ATOM     21  H           0     138.605 131.447 147.548  0.00  0.00     0.180 HD
ENDROOT
BRANCH   6  22
ATOM     22  C           0     135.119 133.663 144.100  0.00  0.00     0.208 C 
BRANCH  22  23
ATOM     23  O           0     135.376 135.021 143.657  0.00  0.00    -0.302 OA
BRANCH  23  24
ATOM     24  C           0     134.521 135.628 142.812  0.00  0.00     0.358 C 
ATOM     25  N           0     134.521 136.971 142.702  0.00  0.00    -0.346 N 
ATOM     26  H           0     135.137 137.501 143.232  0.00  0.00     0.161 HD
ATOM     27  H           0     133.904 137.408 142.093  0.00  0.00     0.161 HD
ATOM     28  O           0     133.749 134.963 142.148  0.00  0.00    -0.239 OA
ENDBRANCH  23  24
ENDBRANCH  22  23
ENDBRANCH   6  22
BRANCH  18  29
ATOM     29  O           0     137.741 133.982 148.189  0.00  0.00    -0.362 OA
ATOM     30  H           0     137.688 133.551 149.053  0.00  0.00     0.213 HD
ENDBRANCH  18  29
BRANCH  18  31
ATOM     31  O           0     135.939 134.589 146.811  0.00  0.00    -0.362 OA
ATOM     32  H           0     135.514 134.238 146.016  0.00  0.00     0.213 HD
ENDBRANCH  18  31
TORSDOF 5
ENDMDL
MODEL 8
REMARK VINA RESULT:      -6.6      4.158      6.414
REMARK  5 active torsions:
REMARK  status: ('A' for Active; 'I' for Inactive)
REMARK    1  A    between atoms: C_6  and  C_7 
REMARK    2  A    between atoms: C_7  and  O_8 
REMARK    3  A    between atoms: O_8  and  C_9 
REMARK       I    between atoms: C_9  and  N_10 
REMARK    4  A    between atoms: C_23  and  O_24 
REMARK    5  A    between atoms: C_23  and  O_25 
ROOT
ATOM      1  N           0     135.912 134.582 147.738  0.00  0.00    -0.235 N 
ATOM      2  H           0     136.349 135.446 147.684  0.00  0.00     0.174 HD
ATOM      3  H           0     135.257 134.412 148.434  0.00  0.00     0.174 HD
ATOM      4  C           0     136.199 133.651 146.872  0.00  0.00     0.672 C 
ATOM      5  N           0     137.121 133.846 145.859  0.00  0.00    -0.218 N 
ATOM      6  C           0     137.847 132.685 145.351  0.00  0.00     0.151 C 
ATOM      7  C           0     136.926 131.541 144.971  0.00  0.00     0.180 C 
ATOM      8  N           0     136.287 131.842 143.673  0.00  0.00    -0.216 N 
ATOM      9  C           0     134.982 131.422 143.746  0.00  0.00     0.670 C 
ATOM     10  N           0     134.226 131.192 142.709  0.00  0.00    -0.235 N 
ATOM     11  H           0     134.581 131.315 141.815  0.00  0.00     0.174 HD
ATOM     12  H           0     133.311 130.896 142.832  0.00  0.00     0.174 HD
ATOM     13  C           0     135.754 131.346 145.919  0.00  0.00     0.217 C 
ATOM     14  N           0     134.570 131.275 145.048  0.00  0.00    -0.191 N 
ATOM     15  N           0     135.612 132.413 146.910  0.00  0.00    -0.183 N 
ATOM     16  C           0     134.758 131.849 147.972  0.00  0.00     0.150 C 
ATOM     17  C           0     135.225 130.378 148.097  0.00  0.00     0.093 C 
ATOM     18  C           0     135.883 130.047 146.733  0.00  0.00     0.209 C 
ATOM     19  H           0     137.281 134.730 145.495  0.00  0.00     0.178 HD
ATOM     20  H           0     136.712 132.260 142.907  0.00  0.00     0.178 HD
ATOM     21  H           0     133.655 131.144 145.342  0.00  0.00     0.180 HD
ENDROOT
BRANCH   6  22
ATOM     22  C           0     138.818 132.200 146.428  0.00  0.00     0.208 C 
BRANCH  22  23
ATOM     23  O           0     139.505 131.010 145.962  0.00  0.00    -0.302 OA
BRANCH  23  24
ATOM     24  C           0     140.567 130.535 146.640  0.00  0.00     0.358 C 
ATOM     25  N           0     141.011 129.284 146.407  0.00  0.00    -0.346 N 
ATOM     26  H           0     140.566 128.725 145.750  0.00  0.00     0.161 HD
ATOM     27  H           0     141.776 128.942 146.896  0.00  0.00     0.161 HD
ATOM     28  O           0     141.125 131.235 147.462  0.00  0.00    -0.239 OA
ENDBRANCH  23  24
ENDBRANCH  22  23
ENDBRANCH   6  22
BRANCH  18  29
ATOM     29  O           0     135.184 128.979 146.090  0.00  0.00    -0.362 OA
ATOM     30  H           0     135.845 128.310 145.864  0.00  0.00     0.213 HD
ENDBRANCH  18  29
BRANCH  18  31
ATOM     31  O           0     137.259 129.708 146.913  0.00  0.00    -0.362 OA
ATOM     32  H           0     137.473 129.890 147.838  0.00  0.00     0.213 HD
ENDBRANCH  18  31
TORSDOF 5
ENDMDL
MODEL 9
REMARK VINA RESULT:      -6.5     10.139     11.878
REMARK  5 active torsions:
REMARK  status: ('A' for Active; 'I' for Inactive)
REMARK    1  A    between atoms: C_6  and  C_7 
REMARK    2  A    between atoms: C_7  and  O_8 
REMARK    3  A    between atoms: O_8  and  C_9 
REMARK       I    between atoms: C_9  and  N_10 
REMARK    4  A    between atoms: C_23  and  O_24 
REMARK    5  A    between atoms: C_23  and  O_25 
ROOT
ATOM      1  N           0     130.433 131.605 135.516  0.00  0.00    -0.235 N 
ATOM      2  H           0     129.591 131.933 135.867  0.00  0.00     0.174 HD
ATOM      3  H           0     131.269 131.878 135.927  0.00  0.00     0.174 HD
ATOM      4  C           0     130.444 130.793 134.496  0.00  0.00     0.672 C 
ATOM      5  N           0     129.279 130.370 133.879  0.00  0.00    -0.218 N 
ATOM      6  C           0     129.334 130.020 132.463  0.00  0.00     0.151 C 
ATOM      7  C           0     130.447 129.040 132.147  0.00  0.00     0.180 C 
ATOM      8  N           0     130.038 127.685 132.574  0.00  0.00    -0.216 N 
ATOM      9  C           0     131.139 127.072 133.120  0.00  0.00     0.670 C 
ATOM     10  N           0     131.262 125.784 133.269  0.00  0.00    -0.235 N 
ATOM     11  H           0     130.546 125.193 132.986  0.00  0.00     0.174 HD
ATOM     12  H           0     132.069 125.416 133.662  0.00  0.00     0.174 HD
ATOM     13  C           0     131.734 129.293 132.915  0.00  0.00     0.217 C 
ATOM     14  N           0     132.096 127.985 133.489  0.00  0.00    -0.191 N 
ATOM     15  N           0     131.608 130.307 133.962  0.00  0.00    -0.183 N 
ATOM     16  C           0     132.988 130.726 134.267  0.00  0.00     0.150 C 
ATOM     17  C           0     133.696 130.744 132.891  0.00  0.00     0.093 C 
ATOM     18  C           0     132.864 129.791 131.997  0.00  0.00     0.209 C 
ATOM     19  H           0     128.448 130.308 134.375  0.00  0.00     0.178 HD
ATOM     20  H           0     129.153 127.298 132.485  0.00  0.00     0.178 HD
ATOM     21  H           0     132.878 127.800 134.032  0.00  0.00     0.180 HD
ENDROOT
BRANCH   6  22
ATOM     22  C           0     129.553 131.295 131.648  0.00  0.00     0.208 C 
BRANCH  22  23
ATOM     23  O           0     128.273 131.812 131.201  0.00  0.00    -0.302 OA
BRANCH  23  24
ATOM     24  C           0     127.811 132.980 131.687  0.00  0.00     0.358 C 
ATOM     25  N           0     128.499 133.630 132.647  0.00  0.00    -0.346 N 
ATOM     26  H           0     129.327 133.256 132.988  0.00  0.00     0.161 HD
ATOM     27  H           0     128.166 134.471 132.997  0.00  0.00     0.161 HD
ATOM     28  O           0     126.774 133.447 131.260  0.00  0.00    -0.239 OA
ENDBRANCH  23  24
ENDBRANCH  22  23
ENDBRANCH   6  22
BRANCH  18  29
ATOM     29  O           0     133.669 128.698 131.551  0.00  0.00    -0.362 OA
ATOM     30  H           0     133.270 127.893 131.909  0.00  0.00     0.213 HD
ENDBRANCH  18  29
BRANCH  18  31
ATOM     31  O           0     132.321 130.500 130.882  0.00  0.00    -0.362 OA
ATOM     32  H           0     131.363 130.367 130.906  0.00  0.00     0.213 HD
ENDBRANCH  18  31
TORSDOF 5
ENDMDL
