# created with PyMOL 2.3.4
@<TRIPOS>MOLECULE
ligand_out_0001
34 36 1                 
SMALL
USER_CHARGES
@<TRIPOS>ATOM
1	   N	139.690	130.576	146.087	N.3	1	UNK0	-0.235	
2	   N	138.525	132.338	145.051	N.3	1	UNK0	-0.218	
3	   N	136.477	134.294	146.266	N.3	1	UNK0	-0.216	
4	   N	136.123	135.210	148.418	N.3	1	UNK0	-0.235	
5	   N	136.410	132.891	148.051	N.3	1	UNK0	-0.191	
6	   N	137.536	131.154	146.800	N.3	1	UNK0	-0.183	
7	   C	138.626	131.324	145.987	C.3	1	UNK0	0.672	
8	   C	137.196	132.699	144.564	C.3	1	UNK0	0.151	
9	   C	136.212	132.959	145.687	C.3	1	UNK0	0.180	
10	   C	136.324	134.193	147.627	C.3	1	UNK0	0.670	
11	   C	136.354	132.014	146.870	C.3	1	UNK0	0.217	
12	   C	137.270	130.048	147.738	C.3	1	UNK0	0.150	
13	   C	135.763	129.749	147.561	C.3	1	UNK0	0.093	
14	   C	135.158	131.055	146.987	C.3	1	UNK0	0.209	
15	   C	136.662	131.557	143.697	C.2	1	UNK0	0.206	
16	   C	134.557	131.969	142.574	C.2	1	UNK0	0.259	
17	   C	133.680	133.174	142.358	C.3	1	UNK0	0.121	
18	   C	134.122	133.906	141.089	C.3	1	UNK0	0.123	
19	   C	132.913	134.242	140.255	C.2	1	UNK0	0.172	
20	   O	135.893	132.106	142.594	O.2	1	UNK0	-0.319	
21	   O	134.060	130.879	142.728	O.co2	1	UNK0	-0.265	
22	   O	132.923	135.227	139.535	O.co2	1	UNK0	-0.648	
23	   O	131.925	133.530	140.299	O.co2	1	UNK0	-0.648	
24	   O	134.175	131.583	147.879	O.2	1	UNK0	-0.362	
25	   O	134.586	130.816	145.699	O.2	1	UNK0	-0.362	
26	   H	140.442	130.722	145.492	 H	1	UNK0	0.174	
27	   H	139.729	129.877	146.756	 H	1	UNK0	0.174	
28	   H	136.074	136.106	148.053	 H	1	UNK0	0.174	
29	   H	136.024	135.069	149.373	 H	1	UNK0	0.174	
30	   H	139.315	132.799	144.727	 H	1	UNK0	0.178	
31	   H	136.715	135.095	145.773	 H	1	UNK0	0.178	
32	   H	136.490	132.597	148.972	 H	1	UNK0	0.180	
33	   H	134.483	132.461	148.145	 H	1	UNK0	0.213	
34	   H	135.323	130.699	145.083	 H	1	UNK0	0.213	
@<TRIPOS>BOND
1 1 7 1
2 1 26 1
3 1 27 1
4 2 8 1
5 2 30 1
6 3 10 1
7 3 31 1
8 4 28 1
9 4 29 1
10 5 32 1
11 6 12 1
12 2 7 1
13 6 7 1
14 8 9 1
15 8 15 1
16 3 9 1
17 9 11 1
18 4 10 1
19 5 10 1
20 5 11 1
21 6 11 1
22 11 14 1
23 12 13 1
24 13 14 1
25 14 24 2
26 14 25 2
27 15 20 2
28 16 17 1
29 16 21 2
30 17 18 1
31 18 19 1
32 19 22 2
33 19 23 2
34 16 20 2
35 24 33 1
36 25 34 1
@<TRIPOS>SUBSTRUCTURE
1	UNK0	1	GROUP	1 ****	UNK
