MODEL 1
REMARK VINA RESULT:      -8.1      0.000      0.000
REMARK  5 active torsions:
REMARK  status: ('A' for Active; 'I' for Inactive)
REMARK    1  A    between atoms: C_6  and  C_7 
REMARK    2  A    between atoms: C_7  and  O_8 
REMARK    3  A    between atoms: O_8  and  C_9 
REMARK       I    between atoms: C_9  and  N_10 
REMARK    4  A    between atoms: C_24  and  O_25 
REMARK    5  A    between atoms: C_24  and  O_26 
ROOT
ATOM      1  N           0     135.098 136.809 143.190  0.00  0.00    -0.235 N 
ATOM      2  H           0     134.317 137.314 142.916  0.00  0.00     0.174 HD
ATOM      3  H           0     135.927 137.271 143.396  0.00  0.00     0.174 HD
ATOM      4  C           0     135.035 135.511 143.288  0.00  0.00     0.672 C 
ATOM      5  N           0     133.875 134.808 143.011  0.00  0.00    -0.218 N 
ATOM      6  C           0     133.998 133.433 142.533  0.00  0.00     0.151 C 
ATOM      7  C           0     134.894 132.586 143.413  0.00  0.00     0.180 C 
ATOM      8  N           0     134.155 132.206 144.637  0.00  0.00    -0.215 N 
ATOM      9  C           0     135.033 132.279 145.690  0.00  0.00     0.672 C 
ATOM     10  N           0     134.853 131.685 146.837  0.00  0.00    -0.235 N 
ATOM     11  H           0     134.058 131.149 146.985  0.00  0.00     0.174 HD
ATOM     12  H           0     135.513 131.778 147.541  0.00  0.00     0.174 HD
ATOM     13  C           0     136.119 133.316 143.939  0.00  0.00     0.219 C 
ATOM     14  N           0     136.124 133.056 145.389  0.00  0.00    -0.187 N 
ATOM     15  C           0     137.124 133.539 146.344  0.00  0.00     0.171 C 
ATOM     16  N           0     136.113 134.755 143.666  0.00  0.00    -0.183 N 
ATOM     17  C           0     137.513 135.188 143.826  0.00  0.00     0.150 C 
ATOM     18  C           0     138.344 134.028 143.231  0.00  0.00     0.093 C 
ATOM     19  C           0     137.419 132.787 143.309  0.00  0.00     0.210 C 
ATOM     20  H           0     133.004 135.217 143.133  0.00  0.00     0.178 HD
ATOM     21  H           0     133.221 131.951 144.685  0.00  0.00     0.178 HD
ENDROOT
BRANCH   6  22
ATOM     22  C           0     134.575 133.453 141.116  0.00  0.00     0.208 C 
BRANCH  22  23
ATOM     23  O           0     133.521 133.766 140.168  0.00  0.00    -0.302 OA
BRANCH  23  24
ATOM     24  C           0     133.644 134.829 139.352  0.00  0.00     0.358 C 
ATOM     25  N           0     133.498 136.076 139.843  0.00  0.00    -0.346 N 
ATOM     26  H           0     133.305 136.206 140.784  0.00  0.00     0.161 HD
ATOM     27  H           0     133.586 136.843 139.254  0.00  0.00     0.161 HD
ATOM     28  O           0     133.886 134.665 138.172  0.00  0.00    -0.239 OA
ENDBRANCH  23  24
ENDBRANCH  22  23
ENDBRANCH   6  22
BRANCH  19  29
ATOM     29  O           0     138.006 131.780 144.137  0.00  0.00    -0.362 OA
ATOM     30  H           0     138.803 132.166 144.525  0.00  0.00     0.213 HD
ENDBRANCH  19  29
BRANCH  19  31
ATOM     31  O           0     137.163 132.273 142.002  0.00  0.00    -0.362 OA
ATOM     32  H           0     137.298 131.315 142.046  0.00  0.00     0.213 HD
ENDBRANCH  19  31
TORSDOF 5
ENDMDL
MODEL 2
REMARK VINA RESULT:      -7.9      1.935      5.071
REMARK  5 active torsions:
REMARK  status: ('A' for Active; 'I' for Inactive)
REMARK    1  A    between atoms: C_6  and  C_7 
REMARK    2  A    between atoms: C_7  and  O_8 
REMARK    3  A    between atoms: O_8  and  C_9 
REMARK       I    between atoms: C_9  and  N_10 
REMARK    4  A    between atoms: C_24  and  O_25 
REMARK    5  A    between atoms: C_24  and  O_26 
ROOT
ATOM      1  N           0     135.013 132.337 146.937  0.00  0.00    -0.235 N 
ATOM      2  H           0     135.148 132.585 147.864  0.00  0.00     0.174 HD
ATOM      3  H           0     134.504 131.540 146.717  0.00  0.00     0.174 HD
ATOM      4  C           0     135.508 133.077 145.984  0.00  0.00     0.672 C 
ATOM      5  N           0     136.235 134.225 146.246  0.00  0.00    -0.218 N 
ATOM      6  C           0     137.246 134.640 145.278  0.00  0.00     0.151 C 
ATOM      7  C           0     136.708 134.705 143.862  0.00  0.00     0.180 C 
ATOM      8  N           0     135.902 135.934 143.705  0.00  0.00    -0.215 N 
ATOM      9  C           0     134.807 135.617 142.939  0.00  0.00     0.672 C 
ATOM     10  N           0     134.081 136.491 142.300  0.00  0.00    -0.235 N 
ATOM     11  H           0     134.304 137.434 142.350  0.00  0.00     0.174 HD
ATOM     12  H           0     133.319 136.200 141.776  0.00  0.00     0.174 HD
ATOM     13  C           0     135.739 133.586 143.513  0.00  0.00     0.219 C 
ATOM     14  N           0     134.570 134.265 142.929  0.00  0.00    -0.187 N 
ATOM     15  C           0     133.363 133.609 142.419  0.00  0.00     0.171 C 
ATOM     16  N           0     135.348 132.764 144.660  0.00  0.00    -0.183 N 
ATOM     17  C           0     134.808 131.520 144.081  0.00  0.00     0.150 C 
ATOM     18  C           0     135.724 131.232 142.868  0.00  0.00     0.093 C 
ATOM     19  C           0     136.338 132.604 142.492  0.00  0.00     0.210 C 
ATOM     20  H           0     136.075 134.741 147.052  0.00  0.00     0.178 HD
ATOM     21  H           0     136.109 136.806 144.075  0.00  0.00     0.178 HD
ENDROOT
BRANCH   6  22
ATOM     22  C           0     138.406 133.643 145.318  0.00  0.00     0.208 C 
BRANCH  22  23
ATOM     23  O           0     139.473 134.106 144.449  0.00  0.00    -0.302 OA
BRANCH  23  24
ATOM     24  C           0     139.851 135.398 144.478  0.00  0.00     0.358 C 
ATOM     25  N           0     140.047 136.017 145.660  0.00  0.00    -0.346 N 
ATOM     26  H           0     139.916 135.531 146.489  0.00  0.00     0.161 HD
ATOM     27  H           0     140.320 136.948 145.681  0.00  0.00     0.161 HD
ATOM     28  O           0     140.016 136.007 143.439  0.00  0.00    -0.239 OA
ENDBRANCH  23  24
ENDBRANCH  22  23
ENDBRANCH   6  22
BRANCH  19  29
ATOM     29  O           0     135.964 132.970 141.162  0.00  0.00    -0.362 OA
ATOM     30  H           0     136.644 132.617 140.573  0.00  0.00     0.213 HD
ENDBRANCH  19  29
BRANCH  19  31
ATOM     31  O           0     137.761 132.564 142.617  0.00  0.00    -0.362 OA
ATOM     32  H           0     138.119 133.134 141.922  0.00  0.00     0.213 HD
ENDBRANCH  19  31
TORSDOF 5
ENDMDL
MODEL 3
REMARK VINA RESULT:      -7.8      2.033      5.660
REMARK  5 active torsions:
REMARK  status: ('A' for Active; 'I' for Inactive)
REMARK    1  A    between atoms: C_6  and  C_7 
REMARK    2  A    between atoms: C_7  and  O_8 
REMARK    3  A    between atoms: O_8  and  C_9 
REMARK       I    between atoms: C_9  and  N_10 
REMARK    4  A    between atoms: C_24  and  O_25 
REMARK    5  A    between atoms: C_24  and  O_26 
ROOT
ATOM      1  N           0     135.104 132.391 146.937  0.00  0.00    -0.235 N 
ATOM      2  H           0     135.284 132.649 147.854  0.00  0.00     0.174 HD
ATOM      3  H           0     134.566 131.605 146.751  0.00  0.00     0.174 HD
ATOM      4  C           0     135.580 133.102 145.954  0.00  0.00     0.672 C 
ATOM      5  N           0     136.349 134.233 146.168  0.00  0.00    -0.218 N 
ATOM      6  C           0     137.331 134.604 145.153  0.00  0.00     0.151 C 
ATOM      7  C           0     136.737 134.664 143.759  0.00  0.00     0.180 C 
ATOM      8  N           0     135.959 135.913 143.615  0.00  0.00    -0.215 N 
ATOM      9  C           0     134.826 135.615 142.899  0.00  0.00     0.672 C 
ATOM     10  N           0     134.099 136.500 142.276  0.00  0.00    -0.235 N 
ATOM     11  H           0     134.350 137.437 142.301  0.00  0.00     0.174 HD
ATOM     12  H           0     133.309 136.222 141.788  0.00  0.00     0.174 HD
ATOM     13  C           0     135.725 133.568 143.467  0.00  0.00     0.219 C 
ATOM     14  N           0     134.552 134.270 142.920  0.00  0.00    -0.187 N 
ATOM     15  C           0     133.308 133.641 142.470  0.00  0.00     0.171 C 
ATOM     16  N           0     135.358 132.774 144.642  0.00  0.00    -0.183 N 
ATOM     17  C           0     134.761 131.537 144.106  0.00  0.00     0.150 C 
ATOM     18  C           0     135.618 131.206 142.861  0.00  0.00     0.093 C 
ATOM     19  C           0     136.254 132.554 142.439  0.00  0.00     0.210 C 
ATOM     20  H           0     136.237 134.766 146.971  0.00  0.00     0.178 HD
ATOM     21  H           0     136.206 136.784 143.962  0.00  0.00     0.178 HD
ENDROOT
BRANCH   6  22
ATOM     22  C           0     138.463 133.576 145.162  0.00  0.00     0.208 C 
BRANCH  22  23
ATOM     23  O           0     139.529 134.038 146.033  0.00  0.00    -0.302 OA
BRANCH  23  24
ATOM     24  C           0     140.611 133.263 146.242  0.00  0.00     0.358 C 
ATOM     25  N           0     141.125 133.143 147.483  0.00  0.00    -0.346 N 
ATOM     26  H           0     140.715 133.615 148.224  0.00  0.00     0.161 HD
ATOM     27  H           0     141.904 132.586 147.633  0.00  0.00     0.161 HD
ATOM     28  O           0     141.124 132.672 145.312  0.00  0.00    -0.239 OA
ENDBRANCH  23  24
ENDBRANCH  22  23
ENDBRANCH   6  22
BRANCH  19  29
ATOM     29  O           0     135.836 132.910 141.119  0.00  0.00    -0.362 OA
ATOM     30  H           0     135.832 133.876 141.079  0.00  0.00     0.213 HD
ENDBRANCH  19  29
BRANCH  19  31
ATOM     31  O           0     137.679 132.476 142.507  0.00  0.00    -0.362 OA
ATOM     32  H           0     138.015 133.373 142.373  0.00  0.00     0.213 HD
ENDBRANCH  19  31
TORSDOF 5
ENDMDL
MODEL 4
REMARK VINA RESULT:      -7.7      2.527      3.723
REMARK  5 active torsions:
REMARK  status: ('A' for Active; 'I' for Inactive)
REMARK    1  A    between atoms: C_6  and  C_7 
REMARK    2  A    between atoms: C_7  and  O_8 
REMARK    3  A    between atoms: O_8  and  C_9 
REMARK       I    between atoms: C_9  and  N_10 
REMARK    4  A    between atoms: C_24  and  O_25 
REMARK    5  A    between atoms: C_24  and  O_26 
ROOT
ATOM      1  N           0     136.228 134.814 147.705  0.00  0.00    -0.235 N 
ATOM      2  H           0     135.378 134.733 148.162  0.00  0.00     0.174 HD
ATOM      3  H           0     136.773 135.607 147.829  0.00  0.00     0.174 HD
ATOM      4  C           0     136.644 133.853 146.928  0.00  0.00     0.672 C 
ATOM      5  N           0     135.906 132.700 146.723  0.00  0.00    -0.218 N 
ATOM      6  C           0     136.064 131.994 145.455  0.00  0.00     0.151 C 
ATOM      7  C           0     137.516 131.721 145.114  0.00  0.00     0.180 C 
ATOM      8  N           0     138.002 130.586 145.927  0.00  0.00    -0.215 N 
ATOM      9  C           0     139.286 130.876 146.318  0.00  0.00     0.672 C 
ATOM     10  N           0     140.146 129.985 146.726  0.00  0.00    -0.235 N 
ATOM     11  H           0     139.892 129.050 146.767  0.00  0.00     0.174 HD
ATOM     12  H           0     141.039 130.258 146.988  0.00  0.00     0.174 HD
ATOM     13  C           0     138.462 132.857 145.471  0.00  0.00     0.219 C 
ATOM     14  N           0     139.554 132.219 146.226  0.00  0.00    -0.187 N 
ATOM     15  C           0     140.726 132.901 146.780  0.00  0.00     0.171 C 
ATOM     16  N           0     137.836 133.923 146.255  0.00  0.00    -0.183 N 
ATOM     17  C           0     138.729 135.087 146.114  0.00  0.00     0.150 C 
ATOM     18  C           0     139.204 135.030 144.642  0.00  0.00     0.093 C 
ATOM     19  C           0     139.027 133.549 144.219  0.00  0.00     0.210 C 
ATOM     20  H           0     135.301 132.369 147.406  0.00  0.00     0.178 HD
ATOM     21  H           0     137.504 129.783 146.145  0.00  0.00     0.178 HD
ENDROOT
BRANCH   6  22
ATOM     22  C           0     135.447 132.839 144.339  0.00  0.00     0.208 C 
BRANCH  22  23
ATOM     23  O           0     135.468 132.089 143.096  0.00  0.00    -0.302 OA
BRANCH  23  24
ATOM     24  C           0     134.964 132.634 141.973  0.00  0.00     0.358 C 
ATOM     25  N           0     135.792 133.151 141.043  0.00  0.00    -0.346 N 
ATOM     26  H           0     136.751 133.130 141.184  0.00  0.00     0.161 HD
ATOM     27  H           0     135.428 133.543 140.234  0.00  0.00     0.161 HD
ATOM     28  O           0     133.761 132.660 141.797  0.00  0.00    -0.239 OA
ENDBRANCH  23  24
ENDBRANCH  22  23
ENDBRANCH   6  22
BRANCH  19  29
ATOM     29  O           0     140.288 132.982 143.856  0.00  0.00    -0.362 OA
ATOM     30  H           0     140.504 133.321 142.976  0.00  0.00     0.213 HD
ENDBRANCH  19  29
BRANCH  19  31
ATOM     31  O           0     138.103 133.448 143.135  0.00  0.00    -0.362 OA
ATOM     32  H           0     137.362 134.034 143.344  0.00  0.00     0.213 HD
ENDBRANCH  19  31
TORSDOF 5
ENDMDL
MODEL 5
REMARK VINA RESULT:      -7.2      3.183      6.049
REMARK  5 active torsions:
REMARK  status: ('A' for Active; 'I' for Inactive)
REMARK    1  A    between atoms: C_6  and  C_7 
REMARK    2  A    between atoms: C_7  and  O_8 
REMARK    3  A    between atoms: O_8  and  C_9 
REMARK       I    between atoms: C_9  and  N_10 
REMARK    4  A    between atoms: C_24  and  O_25 
REMARK    5  A    between atoms: C_24  and  O_26 
ROOT
ATOM      1  N           0     139.115 130.431 146.021  0.00  0.00    -0.235 N 
ATOM      2  H           0     139.286 129.585 146.462  0.00  0.00     0.174 HD
ATOM      3  H           0     139.850 130.933 145.633  0.00  0.00     0.174 HD
ATOM      4  C           0     137.899 130.892 145.942  0.00  0.00     0.672 C 
ATOM      5  N           0     136.817 130.212 146.474  0.00  0.00    -0.218 N 
ATOM      6  C           0     135.661 130.987 146.916  0.00  0.00     0.151 C 
ATOM      7  C           0     135.167 131.954 145.858  0.00  0.00     0.180 C 
ATOM      8  N           0     134.408 131.207 144.833  0.00  0.00    -0.215 N 
ATOM      9  C           0     134.728 131.741 143.609  0.00  0.00     0.672 C 
ATOM     10  N           0     134.005 131.594 142.534  0.00  0.00    -0.235 N 
ATOM     11  H           0     133.183 131.080 142.569  0.00  0.00     0.174 HD
ATOM     12  H           0     134.290 131.998 141.699  0.00  0.00     0.174 HD
ATOM     13  C           0     136.276 132.632 145.069  0.00  0.00     0.219 C 
ATOM     14  N           0     135.903 132.448 143.656  0.00  0.00    -0.187 N 
ATOM     15  C           0     136.656 132.941 142.499  0.00  0.00     0.171 C 
ATOM     16  N           0     137.609 132.086 145.334  0.00  0.00    -0.183 N 
ATOM     17  C           0     138.552 133.115 144.862  0.00  0.00     0.150 C 
ATOM     18  C           0     137.888 134.455 145.258  0.00  0.00     0.093 C 
ATOM     19  C           0     136.378 134.132 145.392  0.00  0.00     0.210 C 
ATOM     20  H           0     136.827 129.244 146.550  0.00  0.00     0.178 HD
ATOM     21  H           0     133.794 130.474 144.996  0.00  0.00     0.178 HD
ENDROOT
BRANCH   6  22
ATOM     22  C           0     136.046 131.779 148.166  0.00  0.00     0.208 C 
BRANCH  22  23
ATOM     23  O           0     134.854 132.356 148.760  0.00  0.00    -0.302 OA
BRANCH  23  24
ATOM     24  C           0     133.947 131.559 149.357  0.00  0.00     0.358 C 
ATOM     25  N           0     132.643 131.656 149.025  0.00  0.00    -0.346 N 
ATOM     26  H           0     132.360 132.298 148.357  0.00  0.00     0.161 HD
ATOM     27  H           0     131.990 131.082 149.455  0.00  0.00     0.161 HD
ATOM     28  O           0     134.302 130.753 150.194  0.00  0.00    -0.239 OA
ENDBRANCH  23  24
ENDBRANCH  22  23
ENDBRANCH   6  22
BRANCH  19  29
ATOM     29  O           0     135.619 134.901 144.457  0.00  0.00    -0.362 OA
ATOM     30  H           0     135.074 134.277 143.958  0.00  0.00     0.213 HD
ENDBRANCH  19  29
BRANCH  19  31
ATOM     31  O           0     135.931 134.384 146.725  0.00  0.00    -0.362 OA
ATOM     32  H           0     136.664 134.811 147.190  0.00  0.00     0.213 HD
ENDBRANCH  19  31
TORSDOF 5
ENDMDL
MODEL 6
REMARK VINA RESULT:      -6.8      2.424      3.991
REMARK  5 active torsions:
REMARK  status: ('A' for Active; 'I' for Inactive)
REMARK    1  A    between atoms: C_6  and  C_7 
REMARK    2  A    between atoms: C_7  and  O_8 
REMARK    3  A    between atoms: O_8  and  C_9 
REMARK       I    between atoms: C_9  and  N_10 
REMARK    4  A    between atoms: C_24  and  O_25 
REMARK    5  A    between atoms: C_24  and  O_26 
ROOT
ATOM      1  N           0     135.156 130.580 143.252  0.00  0.00    -0.235 N 
ATOM      2  H           0     134.895 130.501 142.322  0.00  0.00     0.174 HD
ATOM      3  H           0     134.876 129.907 143.893  0.00  0.00     0.174 HD
ATOM      4  C           0     135.888 131.585 143.641  0.00  0.00     0.672 C 
ATOM      5  N           0     136.317 132.567 142.765  0.00  0.00    -0.218 N 
ATOM      6  C           0     136.558 133.907 143.291  0.00  0.00     0.151 C 
ATOM      7  C           0     137.457 133.903 144.511  0.00  0.00     0.180 C 
ATOM      8  N           0     138.858 133.706 144.082  0.00  0.00    -0.215 N 
ATOM      9  C           0     139.457 132.870 144.992  0.00  0.00     0.672 C 
ATOM     10  N           0     140.747 132.761 145.148  0.00  0.00    -0.235 N 
ATOM     11  H           0     141.348 133.292 144.602  0.00  0.00     0.174 HD
ATOM     12  H           0     141.106 132.150 145.811  0.00  0.00     0.174 HD
ATOM     13  C           0     137.204 132.749 145.468  0.00  0.00     0.219 C 
ATOM     14  N           0     138.531 132.162 145.716  0.00  0.00    -0.187 N 
ATOM     15  C           0     138.815 131.022 146.592  0.00  0.00     0.171 C 
ATOM     16  N           0     136.276 131.742 144.946  0.00  0.00    -0.183 N 
ATOM     17  C           0     135.816 130.987 146.126  0.00  0.00     0.150 C 
ATOM     18  C           0     135.663 132.059 147.231  0.00  0.00     0.093 C 
ATOM     19  C           0     136.585 133.225 146.793  0.00  0.00     0.210 C 
ATOM     20  H           0     136.455 132.368 141.825  0.00  0.00     0.178 HD
ATOM     21  H           0     139.278 134.096 143.300  0.00  0.00     0.178 HD
ENDROOT
BRANCH   6  22
ATOM     22  C           0     135.216 134.537 143.672  0.00  0.00     0.208 C 
BRANCH  22  23
ATOM     23  O           0     134.566 135.049 142.478  0.00  0.00    -0.302 OA
BRANCH  23  24
ATOM     24  C           0     133.815 134.231 141.717  0.00  0.00     0.358 C 
ATOM     25  N           0     133.630 134.507 140.411  0.00  0.00    -0.346 N 
ATOM     26  H           0     134.038 135.295 140.020  0.00  0.00     0.161 HD
ATOM     27  H           0     133.088 133.918 139.862  0.00  0.00     0.161 HD
ATOM     28  O           0     133.304 133.243 142.208  0.00  0.00    -0.239 OA
ENDBRANCH  23  24
ENDBRANCH  22  23
ENDBRANCH   6  22
BRANCH  19  29
ATOM     29  O           0     137.603 133.449 147.772  0.00  0.00    -0.362 OA
ATOM     30  H           0     137.949 132.580 148.019  0.00  0.00     0.213 HD
ENDBRANCH  19  29
BRANCH  19  31
ATOM     31  O           0     135.821 134.414 146.586  0.00  0.00    -0.362 OA
ATOM     32  H           0     135.930 134.958 147.378  0.00  0.00     0.213 HD
ENDBRANCH  19  31
TORSDOF 5
ENDMDL
MODEL 7
REMARK VINA RESULT:      -6.5      2.783      4.490
REMARK  5 active torsions:
REMARK  status: ('A' for Active; 'I' for Inactive)
REMARK    1  A    between atoms: C_6  and  C_7 
REMARK    2  A    between atoms: C_7  and  O_8 
REMARK    3  A    between atoms: O_8  and  C_9 
REMARK       I    between atoms: C_9  and  N_10 
REMARK    4  A    between atoms: C_24  and  O_25 
REMARK    5  A    between atoms: C_24  and  O_26 
ROOT
ATOM      1  N           0     136.111 134.444 147.502  0.00  0.00    -0.235 N 
ATOM      2  H           0     135.694 135.183 147.031  0.00  0.00     0.174 HD
ATOM      3  H           0     136.544 134.597 148.357  0.00  0.00     0.174 HD
ATOM      4  C           0     136.084 133.246 146.990  0.00  0.00     0.672 C 
ATOM      5  N           0     135.475 132.977 145.777  0.00  0.00    -0.218 N 
ATOM      6  C           0     135.981 131.864 144.980  0.00  0.00     0.151 C 
ATOM      7  C           0     136.091 130.578 145.775  0.00  0.00     0.180 C 
ATOM      8  N           0     134.745 129.988 145.937  0.00  0.00    -0.215 N 
ATOM      9  C           0     134.663 129.485 147.212  0.00  0.00     0.672 C 
ATOM     10  N           0     133.790 128.594 147.593  0.00  0.00    -0.235 N 
ATOM     11  H           0     133.145 128.245 146.958  0.00  0.00     0.174 HD
ATOM     12  H           0     133.786 128.281 148.510  0.00  0.00     0.174 HD
ATOM     13  C           0     136.578 130.770 147.203  0.00  0.00     0.219 C 
ATOM     14  N           0     135.612 130.035 148.036  0.00  0.00    -0.187 N 
ATOM     15  C           0     135.659 129.909 149.495  0.00  0.00     0.171 C 
ATOM     16  N           0     136.664 132.173 147.614  0.00  0.00    -0.183 N 
ATOM     17  C           0     137.547 132.180 148.795  0.00  0.00     0.150 C 
ATOM     18  C           0     138.636 131.132 148.465  0.00  0.00     0.093 C 
ATOM     19  C           0     137.990 130.197 147.411  0.00  0.00     0.210 C 
ATOM     20  H           0     134.729 133.515 145.465  0.00  0.00     0.178 HD
ATOM     21  H           0     134.047 129.962 145.264  0.00  0.00     0.178 HD
ENDROOT
BRANCH   6  22
ATOM     22  C           0     137.365 132.230 144.442  0.00  0.00     0.208 C 
BRANCH  22  23
ATOM     23  O           0     137.296 132.397 143.001  0.00  0.00    -0.302 OA
BRANCH  23  24
ATOM     24  C           0     136.503 133.347 142.471  0.00  0.00     0.358 C 
ATOM     25  N           0     135.834 133.105 141.326  0.00  0.00    -0.346 N 
ATOM     26  H           0     135.924 132.246 140.885  0.00  0.00     0.161 HD
ATOM     27  H           0     135.263 133.789 140.944  0.00  0.00     0.161 HD
ATOM     28  O           0     136.390 134.424 143.025  0.00  0.00    -0.239 OA
ENDBRANCH  23  24
ENDBRANCH  22  23
ENDBRANCH   6  22
BRANCH  19  29
ATOM     29  O           0     137.922 128.859 147.908  0.00  0.00    -0.362 OA
ATOM     30  H           0     137.688 128.920 148.844  0.00  0.00     0.213 HD
ENDBRANCH  19  29
BRANCH  19  31
ATOM     31  O           0     138.728 130.239 146.189  0.00  0.00    -0.362 OA
ATOM     32  H           0     139.624 129.934 146.393  0.00  0.00     0.213 HD
ENDBRANCH  19  31
TORSDOF 5
ENDMDL
MODEL 8
REMARK VINA RESULT:      -6.3      3.185      6.296
REMARK  5 active torsions:
REMARK  status: ('A' for Active; 'I' for Inactive)
REMARK    1  A    between atoms: C_6  and  C_7 
REMARK    2  A    between atoms: C_7  and  O_8 
REMARK    3  A    between atoms: O_8  and  C_9 
REMARK       I    between atoms: C_9  and  N_10 
REMARK    4  A    between atoms: C_24  and  O_25 
REMARK    5  A    between atoms: C_24  and  O_26 
ROOT
ATOM      1  N           0     137.749 135.350 147.316  0.00  0.00    -0.235 N 
ATOM      2  H           0     138.410 136.036 147.495  0.00  0.00     0.174 HD
ATOM      3  H           0     136.956 135.283 147.871  0.00  0.00     0.174 HD
ATOM      4  C           0     137.922 134.522 146.325  0.00  0.00     0.672 C 
ATOM      5  N           0     139.033 134.580 145.501  0.00  0.00    -0.218 N 
ATOM      6  C           0     139.490 133.347 144.867  0.00  0.00     0.151 C 
ATOM      7  C           0     138.377 132.612 144.147  0.00  0.00     0.180 C 
ATOM      8  N           0     138.096 133.292 142.864  0.00  0.00    -0.215 N 
ATOM      9  C           0     136.735 133.285 142.680  0.00  0.00     0.672 C 
ATOM     10  N           0     136.150 133.460 141.529  0.00  0.00    -0.235 N 
ATOM     11  H           0     136.683 133.606 140.732  0.00  0.00     0.174 HD
ATOM     12  H           0     135.182 133.444 141.468  0.00  0.00     0.174 HD
ATOM     13  C           0     137.042 132.640 144.874  0.00  0.00     0.219 C 
ATOM     14  N           0     136.065 133.071 143.859  0.00  0.00    -0.187 N 
ATOM     15  C           0     134.625 133.238 144.071  0.00  0.00     0.171 C 
ATOM     16  N           0     137.019 133.532 146.035  0.00  0.00    -0.183 N 
ATOM     17  C           0     135.863 133.097 146.839  0.00  0.00     0.150 C 
ATOM     18  C           0     135.874 131.554 146.722  0.00  0.00     0.093 C 
ATOM     19  C           0     136.654 131.254 145.417  0.00  0.00     0.210 C 
ATOM     20  H           0     139.495 135.420 145.348  0.00  0.00     0.178 HD
ATOM     21  H           0     138.753 133.673 142.262  0.00  0.00     0.178 HD
ENDROOT
BRANCH   6  22
ATOM     22  C           0     140.073 132.426 145.941  0.00  0.00     0.208 C 
BRANCH  22  23
ATOM     23  O           0     141.125 133.125 146.657  0.00  0.00    -0.302 OA
BRANCH  23  24
ATOM     24  C           0     140.954 133.452 147.952  0.00  0.00     0.358 C 
ATOM     25  N           0     141.125 132.520 148.912  0.00  0.00    -0.346 N 
ATOM     26  H           0     141.371 131.615 148.668  0.00  0.00     0.161 HD
ATOM     27  H           0     141.002 132.756 149.844  0.00  0.00     0.161 HD
ATOM     28  O           0     140.646 134.588 148.257  0.00  0.00    -0.239 OA
ENDBRANCH  23  24
ENDBRANCH  22  23
ENDBRANCH   6  22
BRANCH  19  29
ATOM     29  O           0     135.818 130.564 144.485  0.00  0.00    -0.362 OA
ATOM     30  H           0     135.573 129.725 144.899  0.00  0.00     0.213 HD
ENDBRANCH  19  29
BRANCH  19  31
ATOM     31  O           0     137.824 130.487 145.702  0.00  0.00    -0.362 OA
ATOM     32  H           0     138.385 130.529 144.914  0.00  0.00     0.213 HD
ENDBRANCH  19  31
TORSDOF 5
ENDMDL
MODEL 9
REMARK VINA RESULT:      -6.3      3.642      6.305
REMARK  5 active torsions:
REMARK  status: ('A' for Active; 'I' for Inactive)
REMARK    1  A    between atoms: C_6  and  C_7 
REMARK    2  A    between atoms: C_7  and  O_8 
REMARK    3  A    between atoms: O_8  and  C_9 
REMARK       I    between atoms: C_9  and  N_10 
REMARK    4  A    between atoms: C_24  and  O_25 
REMARK    5  A    between atoms: C_24  and  O_26 
ROOT
ATOM      1  N           0     140.481 131.631 147.045  0.00  0.00    -0.235 N 
ATOM      2  H           0     140.963 130.798 147.161  0.00  0.00     0.174 HD
ATOM      3  H           0     140.900 132.471 147.293  0.00  0.00     0.174 HD
ATOM      4  C           0     139.276 131.625 146.550  0.00  0.00     0.672 C 
ATOM      5  N           0     138.640 130.454 146.176  0.00  0.00    -0.218 N 
ATOM      6  C           0     137.181 130.410 146.236  0.00  0.00     0.151 C 
ATOM      7  C           0     136.531 131.578 145.521  0.00  0.00     0.180 C 
ATOM      8  N           0     136.584 131.346 144.062  0.00  0.00    -0.215 N 
ATOM      9  C           0     136.864 132.549 143.461  0.00  0.00     0.672 C 
ATOM     10  N           0     136.635 132.811 142.204  0.00  0.00    -0.235 N 
ATOM     11  H           0     136.243 132.133 141.632  0.00  0.00     0.174 HD
ATOM     12  H           0     136.857 133.682 141.842  0.00  0.00     0.174 HD
ATOM     13  C           0     137.256 132.902 145.706  0.00  0.00     0.219 C 
ATOM     14  N           0     137.414 133.442 144.345  0.00  0.00    -0.187 N 
ATOM     15  C           0     138.046 134.717 143.997  0.00  0.00     0.171 C 
ATOM     16  N           0     138.554 132.776 146.373  0.00  0.00    -0.183 N 
ATOM     17  C           0     138.876 134.131 146.857  0.00  0.00     0.150 C 
ATOM     18  C           0     137.520 134.701 147.335  0.00  0.00     0.093 C 
ATOM     19  C           0     136.447 133.885 146.569  0.00  0.00     0.210 C 
ATOM     20  H           0     139.150 129.684 145.881  0.00  0.00     0.178 HD
ATOM     21  H           0     136.445 130.499 143.612  0.00  0.00     0.178 HD
ENDROOT
BRANCH   6  22
ATOM     22  C           0     136.746 130.426 147.702  0.00  0.00     0.208 C 
BRANCH  22  23
ATOM     23  O           0     135.306 130.256 147.782  0.00  0.00    -0.302 OA
BRANCH  23  24
ATOM     24  C           0     134.780 129.022 147.897  0.00  0.00     0.358 C 
ATOM     25  N           0     133.706 128.675 147.159  0.00  0.00    -0.346 N 
ATOM     26  H           0     133.314 129.314 146.545  0.00  0.00     0.161 HD
ATOM     27  H           0     133.327 127.786 147.243  0.00  0.00     0.161 HD
ATOM     28  O           0     135.272 128.221 148.668  0.00  0.00    -0.239 OA
ENDBRANCH  23  24
ENDBRANCH  22  23
ENDBRANCH   6  22
BRANCH  19  29
ATOM     29  O           0     135.660 134.748 145.745  0.00  0.00    -0.362 OA
ATOM     30  H           0     135.489 134.269 144.922  0.00  0.00     0.213 HD
ENDBRANCH  19  29
BRANCH  19  31
ATOM     31  O           0     135.614 133.173 147.485  0.00  0.00    -0.362 OA
ATOM     32  H           0     136.050 132.327 147.660  0.00  0.00     0.213 HD
ENDBRANCH  19  31
TORSDOF 5
ENDMDL
