# created with PyMOL 2.3.4
@<TRIPOS>MOLECULE
ligand_out_0001
32 34 1                 
SMALL
USER_CHARGES
@<TRIPOS>ATOM
1	   N	135.098	136.809	143.190	N.3	1	UNK0	-0.235	
2	   N	133.875	134.808	143.011	N.3	1	UNK0	-0.218	
3	   N	134.155	132.206	144.637	N.3	1	UNK0	-0.215	
4	   N	134.853	131.685	146.837	N.3	1	UNK0	-0.235	
5	   N	136.124	133.056	145.389	N.3	1	UNK0	-0.187	
6	   N	136.113	134.755	143.666	N.3	1	UNK0	-0.183	
7	   N	133.498	136.076	139.843	N.pl3	1	UNK0	-0.346	
8	   C	135.035	135.511	143.288	C.3	1	UNK0	0.672	
9	   C	133.998	133.433	142.533	C.3	1	UNK0	0.151	
10	   C	134.894	132.586	143.413	C.3	1	UNK0	0.180	
11	   C	135.033	132.279	145.690	C.3	1	UNK0	0.672	
12	   C	136.119	133.316	143.939	C.3	1	UNK0	0.219	
13	   C	137.124	133.539	146.344	C.3	1	UNK0	0.171	
14	   C	137.513	135.188	143.826	C.3	1	UNK0	0.150	
15	   C	138.344	134.028	143.231	C.3	1	UNK0	0.093	
16	   C	137.419	132.787	143.309	C.3	1	UNK0	0.210	
17	   C	134.575	133.453	141.116	C.2	1	UNK0	0.208	
18	   C	133.644	134.829	139.352	C.2	1	UNK0	0.358	
19	   O	133.521	133.766	140.168	O.2	1	UNK0	-0.302	
20	   O	133.886	134.665	138.172	O.co2	1	UNK0	-0.239	
21	   O	138.006	131.780	144.137	O.2	1	UNK0	-0.362	
22	   O	137.163	132.273	142.002	O.2	1	UNK0	-0.362	
23	   H	134.317	137.314	142.916	 H	1	UNK0	0.174	
24	   H	135.927	137.271	143.396	 H	1	UNK0	0.174	
25	   H	134.058	131.149	146.985	 H	1	UNK0	0.174	
26	   H	135.513	131.778	147.541	 H	1	UNK0	0.174	
27	   H	133.004	135.217	143.133	 H	1	UNK0	0.178	
28	   H	133.221	131.951	144.685	 H	1	UNK0	0.178	
29	   H	133.305	136.206	140.784	 H	1	UNK0	0.161	
30	   H	133.586	136.843	139.254	 H	1	UNK0	0.161	
31	   H	138.803	132.166	144.525	 H	1	UNK0	0.213	
32	   H	137.298	131.315	142.046	 H	1	UNK0	0.213	
@<TRIPOS>BOND
1 1 8 1
2 1 23 1
3 1 24 1
4 2 9 1
5 2 27 1
6 3 11 1
7 3 28 1
8 4 25 1
9 4 26 1
10 5 13 1
11 6 14 1
12 7 29 1
13 7 30 1
14 2 8 1
15 6 8 1
16 9 10 1
17 9 17 1
18 3 10 1
19 10 12 1
20 4 11 1
21 5 11 1
22 5 12 1
23 6 12 1
24 12 16 1
25 14 15 1
26 15 16 1
27 16 21 2
28 16 22 2
29 17 19 2
30 7 18 1
31 18 20 2
32 18 19 2
33 21 31 1
34 22 32 1
@<TRIPOS>SUBSTRUCTURE
1	UNK0	1	GROUP	1 ****	UNK
