# created with PyMOL 2.3.4
@<TRIPOS>MOLECULE
ligand_out_0001
30 32 1                 
SMALL
USER_CHARGES
@<TRIPOS>ATOM
1	   N	139.268	130.836	145.855	N.3	1	UNK0	-0.235	
2	   N	138.128	132.657	144.900	N.3	1	UNK0	-0.218	
3	   N	135.912	134.452	146.096	N.3	1	UNK0	-0.216	
4	   N	136.445	135.111	148.303	N.3	1	UNK0	-0.235	
5	   N	135.787	132.905	147.757	N.3	1	UNK0	-0.194	
6	   N	137.052	131.294	146.461	N.3	1	UNK0	-0.186	
7	   N	133.477	133.118	141.581	N.pl3	1	UNK0	-0.337	
8	   C	138.194	131.565	145.746	C.3	1	UNK0	0.672	
9	   C	136.831	133.026	144.340	C.3	1	UNK0	0.151	
10	   C	135.756	133.159	145.402	C.3	1	UNK0	0.177	
11	   C	136.071	134.212	147.437	C.3	1	UNK0	0.670	
12	   C	135.853	132.129	146.514	C.3	1	UNK0	0.187	
13	   C	136.774	130.106	147.282	C.3	1	UNK0	0.147	
14	   C	135.240	129.936	147.308	C.3	1	UNK0	0.057	
15	   C	134.693	131.114	146.471	C.2	1	UNK0	0.172	
16	   C	136.402	131.955	143.336	C.2	1	UNK0	0.208	
17	   C	134.355	132.218	142.065	C.2	1	UNK0	0.362	
18	   C	132.080	132.733	141.362	C.3	1	UNK0	0.154	
19	   C	133.917	134.481	141.275	C.3	1	UNK0	0.154	
20	   O	135.639	132.571	142.267	O.2	1	UNK0	-0.302	
21	   O	133.989	131.087	142.318	O.co2	1	UNK0	-0.238	
22	   O	134.414	130.700	145.132	O.2	1	UNK0	-0.391	
23	   H	140.056	131.053	145.332	 H	1	UNK0	0.174	
24	   H	139.282	130.079	146.461	 H	1	UNK0	0.174	
25	   H	136.630	136.018	148.011	 H	1	UNK0	0.174	
26	   H	136.537	134.876	149.239	 H	1	UNK0	0.174	
27	   H	138.926	133.166	144.683	 H	1	UNK0	0.178	
28	   H	135.905	135.325	145.674	 H	1	UNK0	0.178	
29	   H	135.581	132.561	148.640	 H	1	UNK0	0.180	
30	   H	133.452	130.639	145.053	 H	1	UNK0	0.210	
@<TRIPOS>BOND
1 1 8 1
2 1 23 1
3 1 24 1
4 2 9 1
5 2 27 1
6 3 11 1
7 3 28 1
8 4 25 1
9 4 26 1
10 5 29 1
11 6 13 1
12 7 18 1
13 7 19 1
14 2 8 1
15 6 8 1
16 9 10 1
17 9 16 1
18 3 10 1
19 10 12 1
20 4 11 1
21 5 11 1
22 5 12 1
23 6 12 1
24 12 15 1
25 13 14 1
26 14 15 1
27 15 22 2
28 16 20 2
29 7 17 1
30 17 21 2
31 17 20 2
32 22 30 1
@<TRIPOS>SUBSTRUCTURE
1	UNK0	1	GROUP	1 ****	UNK
