MODEL 1
REMARK VINA RESULT:      -6.7      0.000      0.000
REMARK  4 active torsions:
REMARK  status: ('A' for Active; 'I' for Inactive)
REMARK    1  A    between atoms: C_6  and  C_7 
REMARK    2  A    between atoms: C_7  and  O_8 
REMARK    3  A    between atoms: O_8  and  C_9 
REMARK       I    between atoms: C_9  and  N_10 
REMARK    4  A    between atoms: C_25  and  O_26 
ROOT
ATOM      1  N           0     139.268 130.836 145.855  0.00  0.00    -0.235 N 
ATOM      2  H           0     140.056 131.053 145.332  0.00  0.00     0.174 HD
ATOM      3  H           0     139.282 130.079 146.461  0.00  0.00     0.174 HD
ATOM      4  C           0     138.194 131.565 145.746  0.00  0.00     0.672 C 
ATOM      5  N           0     138.128 132.657 144.900  0.00  0.00    -0.218 N 
ATOM      6  C           0     136.831 133.026 144.340  0.00  0.00     0.151 C 
ATOM      7  C           0     135.756 133.159 145.402  0.00  0.00     0.177 C 
ATOM      8  N           0     135.912 134.452 146.096  0.00  0.00    -0.216 N 
ATOM      9  C           0     136.071 134.212 147.437  0.00  0.00     0.670 C 
ATOM     10  N           0     136.445 135.111 148.303  0.00  0.00    -0.235 N 
ATOM     11  H           0     136.630 136.018 148.011  0.00  0.00     0.174 HD
ATOM     12  H           0     136.537 134.876 149.239  0.00  0.00     0.174 HD
ATOM     13  C           0     135.853 132.129 146.514  0.00  0.00     0.187 C 
ATOM     14  N           0     135.787 132.905 147.757  0.00  0.00    -0.194 N 
ATOM     15  N           0     137.052 131.294 146.461  0.00  0.00    -0.186 N 
ATOM     16  C           0     136.774 130.106 147.282  0.00  0.00     0.147 C 
ATOM     17  C           0     135.240 129.936 147.308  0.00  0.00     0.057 C 
ATOM     18  C           0     134.693 131.114 146.471  0.00  0.00     0.172 C 
ATOM     19  H           0     138.926 133.166 144.683  0.00  0.00     0.178 HD
ATOM     20  H           0     135.905 135.325 145.674  0.00  0.00     0.178 HD
ATOM     21  H           0     135.581 132.561 148.640  0.00  0.00     0.180 HD
ENDROOT
BRANCH   6  22
ATOM     22  C           0     136.402 131.955 143.336  0.00  0.00     0.208 C 
BRANCH  22  23
ATOM     23  O           0     135.639 132.571 142.267  0.00  0.00    -0.302 OA
BRANCH  23  24
ATOM     24  C           0     134.355 132.218 142.065  0.00  0.00     0.362 C 
ATOM     25  N           0     133.477 133.118 141.581  0.00  0.00    -0.337 N 
ATOM     26  C           0     132.080 132.733 141.362  0.00  0.00     0.154 C 
ATOM     27  C           0     133.917 134.481 141.275  0.00  0.00     0.154 C 
ATOM     28  O           0     133.989 131.087 142.318  0.00  0.00    -0.238 OA
ENDBRANCH  23  24
ENDBRANCH  22  23
ENDBRANCH   6  22
BRANCH  18  29
ATOM     29  O           0     134.414 130.700 145.132  0.00  0.00    -0.391 OA
ATOM     30  H           0     133.452 130.639 145.053  0.00  0.00     0.210 HD
ENDBRANCH  18  29
TORSDOF 4
ENDMDL
MODEL 2
REMARK VINA RESULT:      -6.7      1.785      3.326
REMARK  4 active torsions:
REMARK  status: ('A' for Active; 'I' for Inactive)
REMARK    1  A    between atoms: C_6  and  C_7 
REMARK    2  A    between atoms: C_7  and  O_8 
REMARK    3  A    between atoms: O_8  and  C_9 
REMARK       I    between atoms: C_9  and  N_10 
REMARK    4  A    between atoms: C_25  and  O_26 
ROOT
ATOM      1  N           0     134.138 130.288 148.389  0.00  0.00    -0.235 N 
ATOM      2  H           0     133.538 129.574 148.119  0.00  0.00     0.174 HD
ATOM      3  H           0     134.071 130.666 149.279  0.00  0.00     0.174 HD
ATOM      4  C           0     135.035 130.734 147.556  0.00  0.00     0.672 C 
ATOM      5  N           0     135.173 130.221 146.278  0.00  0.00    -0.218 N 
ATOM      6  C           0     135.684 131.099 145.229  0.00  0.00     0.151 C 
ATOM      7  C           0     136.974 131.790 145.626  0.00  0.00     0.177 C 
ATOM      8  N           0     138.098 130.842 145.489  0.00  0.00    -0.216 N 
ATOM      9  C           0     138.729 130.734 146.702  0.00  0.00     0.670 C 
ATOM     10  N           0     139.620 129.827 146.985  0.00  0.00    -0.235 N 
ATOM     11  H           0     139.875 129.172 146.316  0.00  0.00     0.174 HD
ATOM     12  H           0     140.030 129.807 147.864  0.00  0.00     0.174 HD
ATOM     13  C           0     137.026 132.216 147.082  0.00  0.00     0.187 C 
ATOM     14  N           0     138.305 131.702 147.583  0.00  0.00    -0.194 N 
ATOM     15  N           0     135.901 131.747 147.890  0.00  0.00    -0.186 N 
ATOM     16  C           0     135.864 132.594 149.090  0.00  0.00     0.147 C 
ATOM     17  C           0     136.548 133.926 148.715  0.00  0.00     0.057 C 
ATOM     18  C           0     136.983 133.748 147.242  0.00  0.00     0.172 C 
ATOM     19  H           0     134.935 129.301 146.084  0.00  0.00     0.178 HD
ATOM     20  H           0     138.346 130.372 144.677  0.00  0.00     0.178 HD
ATOM     21  H           0     138.767 131.989 148.386  0.00  0.00     0.180 HD
ENDROOT
BRANCH   6  22
ATOM     22  C           0     134.631 132.163 144.917  0.00  0.00     0.208 C 
BRANCH  22  23
ATOM     23  O           0     135.106 133.014 143.841  0.00  0.00    -0.302 OA
BRANCH  23  24
ATOM     24  C           0     134.476 133.008 142.651  0.00  0.00     0.362 C 
ATOM     25  N           0     134.113 134.172 142.076  0.00  0.00    -0.337 N 
ATOM     26  C           0     133.428 134.167 140.781  0.00  0.00     0.154 C 
ATOM     27  C           0     134.403 135.442 142.746  0.00  0.00     0.154 C 
ATOM     28  O           0     134.236 131.955 142.094  0.00  0.00    -0.238 OA
ENDBRANCH  23  24
ENDBRANCH  22  23
ENDBRANCH   6  22
BRANCH  18  29
ATOM     29  O           0     136.029 134.338 146.356  0.00  0.00    -0.391 OA
ATOM     30  H           0     135.225 133.804 146.417  0.00  0.00     0.210 HD
ENDBRANCH  18  29
TORSDOF 4
ENDMDL
MODEL 3
REMARK VINA RESULT:      -6.6      2.048      3.583
REMARK  4 active torsions:
REMARK  status: ('A' for Active; 'I' for Inactive)
REMARK    1  A    between atoms: C_6  and  C_7 
REMARK    2  A    between atoms: C_7  and  O_8 
REMARK    3  A    between atoms: O_8  and  C_9 
REMARK       I    between atoms: C_9  and  N_10 
REMARK    4  A    between atoms: C_25  and  O_26 
ROOT
ATOM      1  N           0     136.984 133.164 149.405  0.00  0.00    -0.235 N 
ATOM      2  H           0     136.386 133.807 149.818  0.00  0.00     0.174 HD
ATOM      3  H           0     137.805 132.909 149.853  0.00  0.00     0.174 HD
ATOM      4  C           0     136.681 132.641 148.250  0.00  0.00     0.672 C 
ATOM      5  N           0     135.519 132.971 147.575  0.00  0.00    -0.218 N 
ATOM      6  C           0     135.517 132.895 146.118  0.00  0.00     0.151 C 
ATOM      7  C           0     136.026 131.561 145.603  0.00  0.00     0.177 C 
ATOM      8  N           0     134.961 130.548 145.736  0.00  0.00    -0.216 N 
ATOM      9  C           0     135.433 129.516 146.505  0.00  0.00     0.670 C 
ATOM     10  N           0     134.687 128.565 146.993  0.00  0.00    -0.235 N 
ATOM     11  H           0     133.732 128.560 146.818  0.00  0.00     0.174 HD
ATOM     12  H           0     135.085 127.863 147.530  0.00  0.00     0.174 HD
ATOM     13  C           0     137.182 130.989 146.404  0.00  0.00     0.187 C 
ATOM     14  N           0     136.792 129.606 146.699  0.00  0.00    -0.194 N 
ATOM     15  N           0     137.499 131.732 147.624  0.00  0.00    -0.186 N 
ATOM     16  C           0     138.863 131.345 148.009  0.00  0.00     0.147 C 
ATOM     17  C           0     139.570 130.870 146.721  0.00  0.00     0.057 C 
ATOM     18  C           0     138.503 131.000 145.611  0.00  0.00     0.172 C 
ATOM     19  H           0     134.724 133.246 148.060  0.00  0.00     0.178 HD
ATOM     20  H           0     134.074 130.604 145.345  0.00  0.00     0.178 HD
ATOM     21  H           0     137.381 128.889 146.978  0.00  0.00     0.180 HD
ENDROOT
BRANCH   6  22
ATOM     22  C           0     136.406 134.009 145.562  0.00  0.00     0.208 C 
BRANCH  22  23
ATOM     23  O           0     136.413 133.945 144.112  0.00  0.00    -0.302 OA
BRANCH  23  24
ATOM     24  C           0     135.379 134.446 143.411  0.00  0.00     0.362 C 
ATOM     25  N           0     134.879 133.759 142.364  0.00  0.00    -0.337 N 
ATOM     26  C           0     133.754 134.304 141.601  0.00  0.00     0.154 C 
ATOM     27  C           0     135.462 132.468 141.989  0.00  0.00     0.154 C 
ATOM     28  O           0     134.895 135.516 143.722  0.00  0.00    -0.238 OA
ENDBRANCH  23  24
ENDBRANCH  22  23
ENDBRANCH   6  22
BRANCH  18  29
ATOM     29  O           0     138.666 132.223 144.889  0.00  0.00    -0.391 OA
ATOM     30  H           0     139.447 132.114 144.329  0.00  0.00     0.210 HD
ENDBRANCH  18  29
TORSDOF 4
ENDMDL
MODEL 4
REMARK VINA RESULT:      -6.4      2.153      5.222
REMARK  4 active torsions:
REMARK  status: ('A' for Active; 'I' for Inactive)
REMARK    1  A    between atoms: C_6  and  C_7 
REMARK    2  A    between atoms: C_7  and  O_8 
REMARK    3  A    between atoms: O_8  and  C_9 
REMARK       I    between atoms: C_9  and  N_10 
REMARK    4  A    between atoms: C_25  and  O_26 
ROOT
ATOM      1  N           0     135.971 134.812 147.777  0.00  0.00    -0.235 N 
ATOM      2  H           0     135.996 135.040 148.720  0.00  0.00     0.174 HD
ATOM      3  H           0     135.668 135.466 147.129  0.00  0.00     0.174 HD
ATOM      4  C           0     136.352 133.630 147.382  0.00  0.00     0.672 C 
ATOM      5  N           0     136.799 132.666 148.269  0.00  0.00    -0.218 N 
ATOM      6  C           0     136.605 131.262 147.924  0.00  0.00     0.151 C 
ATOM      7  C           0     137.113 130.927 146.535  0.00  0.00     0.177 C 
ATOM      8  N           0     138.584 130.797 146.571  0.00  0.00    -0.216 N 
ATOM      9  C           0     139.123 131.685 145.676  0.00  0.00     0.670 C 
ATOM     10  N           0     140.391 131.980 145.611  0.00  0.00    -0.235 N 
ATOM     11  H           0     141.018 131.560 146.222  0.00  0.00     0.174 HD
ATOM     12  H           0     140.708 132.617 144.953  0.00  0.00     0.174 HD
ATOM     13  C           0     136.864 132.016 145.506  0.00  0.00     0.187 C 
ATOM     14  N           0     138.162 132.227 144.855  0.00  0.00    -0.194 N 
ATOM     15  N           0     136.329 133.260 146.060  0.00  0.00    -0.186 N 
ATOM     16  C           0     135.736 133.998 144.936  0.00  0.00     0.147 C 
ATOM     17  C           0     135.368 132.952 143.862  0.00  0.00     0.057 C 
ATOM     18  C           0     135.817 131.597 144.456  0.00  0.00     0.172 C 
ATOM     19  H           0     137.231 132.919 149.101  0.00  0.00     0.178 HD
ATOM     20  H           0     139.084 130.186 147.135  0.00  0.00     0.178 HD
ATOM     21  H           0     138.314 132.667 144.005  0.00  0.00     0.180 HD
ENDROOT
BRANCH   6  22
ATOM     22  C           0     135.112 130.936 147.994  0.00  0.00     0.208 C 
BRANCH  22  23
ATOM     23  O           0     134.935 129.573 148.462  0.00  0.00    -0.302 OA
BRANCH  23  24
ATOM     24  C           0     134.254 128.687 147.712  0.00  0.00     0.362 C 
ATOM     25  N           0     133.081 128.191 148.154  0.00  0.00    -0.337 N 
ATOM     26  C           0     132.339 127.227 147.339  0.00  0.00     0.154 C 
ATOM     27  C           0     132.549 128.615 149.452  0.00  0.00     0.154 C 
ATOM     28  O           0     134.694 128.335 146.636  0.00  0.00    -0.238 OA
ENDBRANCH  23  24
ENDBRANCH  22  23
ENDBRANCH   6  22
BRANCH  18  29
ATOM     29  O           0     134.715 130.918 145.062  0.00  0.00    -0.391 OA
ATOM     30  H           0     134.550 131.355 145.910  0.00  0.00     0.210 HD
ENDBRANCH  18  29
TORSDOF 4
ENDMDL
MODEL 5
REMARK VINA RESULT:      -6.2      2.283      3.586
REMARK  4 active torsions:
REMARK  status: ('A' for Active; 'I' for Inactive)
REMARK    1  A    between atoms: C_6  and  C_7 
REMARK    2  A    between atoms: C_7  and  O_8 
REMARK    3  A    between atoms: O_8  and  C_9 
REMARK       I    between atoms: C_9  and  N_10 
REMARK    4  A    between atoms: C_25  and  O_26 
ROOT
ATOM      1  N           0     133.647 128.645 147.007  0.00  0.00    -0.235 N 
ATOM      2  H           0     133.350 128.223 146.185  0.00  0.00     0.174 HD
ATOM      3  H           0     133.140 128.522 147.824  0.00  0.00     0.174 HD
ATOM      4  C           0     134.728 129.372 147.012  0.00  0.00     0.672 C 
ATOM      5  N           0     135.487 129.572 145.872  0.00  0.00    -0.218 N 
ATOM      6  C           0     136.246 130.812 145.753  0.00  0.00     0.151 C 
ATOM      7  C           0     137.105 131.089 146.972  0.00  0.00     0.177 C 
ATOM      8  N           0     138.318 130.249 146.916  0.00  0.00    -0.216 N 
ATOM      9  C           0     138.371 129.484 148.054  0.00  0.00     0.670 C 
ATOM     10  N           0     139.190 128.485 148.226  0.00  0.00    -0.235 N 
ATOM     11  H           0     139.814 128.242 147.523  0.00  0.00     0.174 HD
ATOM     12  H           0     139.177 127.985 149.057  0.00  0.00     0.174 HD
ATOM     13  C           0     136.452 130.709 148.289  0.00  0.00     0.187 C 
ATOM     14  N           0     137.455 129.901 148.991  0.00  0.00    -0.194 N 
ATOM     15  N           0     135.184 129.994 148.150  0.00  0.00    -0.186 N 
ATOM     16  C           0     134.491 130.111 149.441  0.00  0.00     0.147 C 
ATOM     17  C           0     135.039 131.383 150.124  0.00  0.00     0.057 C 
ATOM     18  C           0     136.090 131.943 149.138  0.00  0.00     0.172 C 
ATOM     19  H           0     135.512 128.903 145.170  0.00  0.00     0.178 HD
ATOM     20  H           0     138.966 130.239 146.196  0.00  0.00     0.178 HD
ATOM     21  H           0     137.470 129.698 149.939  0.00  0.00     0.180 HD
ENDROOT
BRANCH   6  22
ATOM     22  C           0     135.271 131.975 145.563  0.00  0.00     0.208 C 
BRANCH  22  23
ATOM     23  O           0     135.424 132.523 144.227  0.00  0.00    -0.302 OA
BRANCH  23  24
ATOM     24  C           0     134.536 132.208 143.265  0.00  0.00     0.362 C 
ATOM     25  N           0     133.951 133.185 142.544  0.00  0.00    -0.337 N 
ATOM     26  C           0     132.985 132.844 141.496  0.00  0.00     0.154 C 
ATOM     27  C           0     134.279 134.589 142.808  0.00  0.00     0.154 C 
ATOM     28  O           0     134.264 131.045 143.045  0.00  0.00    -0.238 OA
ENDBRANCH  23  24
ENDBRANCH  22  23
ENDBRANCH   6  22
BRANCH  18  29
ATOM     29  O           0     135.528 132.982 148.333  0.00  0.00    -0.391 OA
ATOM     30  H           0     134.818 133.384 148.851  0.00  0.00     0.210 HD
ENDBRANCH  18  29
TORSDOF 4
ENDMDL
MODEL 6
REMARK VINA RESULT:      -6.2     10.457     12.641
REMARK  4 active torsions:
REMARK  status: ('A' for Active; 'I' for Inactive)
REMARK    1  A    between atoms: C_6  and  C_7 
REMARK    2  A    between atoms: C_7  and  O_8 
REMARK    3  A    between atoms: O_8  and  C_9 
REMARK       I    between atoms: C_9  and  N_10 
REMARK    4  A    between atoms: C_25  and  O_26 
ROOT
ATOM      1  N           0     129.212 135.628 133.125  0.00  0.00    -0.235 N 
ATOM      2  H           0     128.427 135.511 132.566  0.00  0.00     0.174 HD
ATOM      3  H           0     129.501 136.519 133.374  0.00  0.00     0.174 HD
ATOM      4  C           0     129.874 134.586 133.544  0.00  0.00     0.672 C 
ATOM      5  N           0     129.496 133.295 133.220  0.00  0.00    -0.218 N 
ATOM      6  C           0     130.530 132.267 133.146  0.00  0.00     0.151 C 
ATOM      7  C           0     131.404 132.230 134.385  0.00  0.00     0.177 C 
ATOM      8  N           0     130.683 131.538 135.471  0.00  0.00    -0.216 N 
ATOM      9  C           0     130.593 132.385 136.546  0.00  0.00     0.670 C 
ATOM     10  N           0     129.838 132.171 137.586  0.00  0.00    -0.235 N 
ATOM     11  H           0     129.292 131.369 137.632  0.00  0.00     0.174 HD
ATOM     12  H           0     129.820 132.811 138.314  0.00  0.00     0.174 HD
ATOM     13  C           0     131.717 133.599 134.964  0.00  0.00     0.187 C 
ATOM     14  N           0     131.398 133.489 136.391  0.00  0.00    -0.194 N 
ATOM     15  N           0     130.994 134.702 134.332  0.00  0.00    -0.186 N 
ATOM     16  C           0     131.723 135.932 134.671  0.00  0.00     0.147 C 
ATOM     17  C           0     133.181 135.516 134.966  0.00  0.00     0.057 C 
ATOM     18  C           0     133.200 133.980 134.790  0.00  0.00     0.172 C 
ATOM     19  H           0     128.566 133.079 133.047  0.00  0.00     0.178 HD
ATOM     20  H           0     130.330 130.635 135.430  0.00  0.00     0.178 HD
ATOM     21  H           0     131.698 134.085 137.095  0.00  0.00     0.180 HD
ENDROOT
BRANCH   6  22
ATOM     22  C           0     131.413 132.541 131.928  0.00  0.00     0.208 C 
BRANCH  22  23
ATOM     23  O           0     131.857 131.281 131.359  0.00  0.00    -0.302 OA
BRANCH  23  24
ATOM     24  C           0     133.050 130.766 131.712  0.00  0.00     0.362 C 
ATOM     25  N           0     133.111 129.574 132.339  0.00  0.00    -0.337 N 
ATOM     26  C           0     134.409 129.014 132.723  0.00  0.00     0.154 C 
ATOM     27  C           0     131.879 128.840 132.637  0.00  0.00     0.154 C 
ATOM     28  O           0     134.073 131.375 131.465  0.00  0.00    -0.238 OA
ENDBRANCH  23  24
ENDBRANCH  22  23
ENDBRANCH   6  22
BRANCH  18  29
ATOM     29  O           0     133.679 133.624 133.491  0.00  0.00    -0.391 OA
ATOM     30  H           0     133.336 134.286 132.875  0.00  0.00     0.210 HD
ENDBRANCH  18  29
TORSDOF 4
ENDMDL
MODEL 7
REMARK VINA RESULT:      -6.1      2.772      4.356
REMARK  4 active torsions:
REMARK  status: ('A' for Active; 'I' for Inactive)
REMARK    1  A    between atoms: C_6  and  C_7 
REMARK    2  A    between atoms: C_7  and  O_8 
REMARK    3  A    between atoms: O_8  and  C_9 
REMARK       I    between atoms: C_9  and  N_10 
REMARK    4  A    between atoms: C_25  and  O_26 
ROOT
ATOM      1  N           0     135.191 132.730 149.210  0.00  0.00    -0.235 N 
ATOM      2  H           0     134.792 133.543 148.861  0.00  0.00     0.174 HD
ATOM      3  H           0     135.559 132.718 150.107  0.00  0.00     0.174 HD
ATOM      4  C           0     135.228 131.655 148.475  0.00  0.00     0.672 C 
ATOM      5  N           0     134.710 131.622 147.192  0.00  0.00    -0.218 N 
ATOM      6  C           0     135.301 130.698 146.229  0.00  0.00     0.151 C 
ATOM      7  C           0     135.391 129.280 146.762  0.00  0.00     0.177 C 
ATOM      8  N           0     134.063 128.642 146.679  0.00  0.00    -0.216 N 
ATOM      9  C           0     133.697 128.229 147.934  0.00  0.00     0.670 C 
ATOM     10  N           0     132.500 127.823 148.252  0.00  0.00    -0.235 N 
ATOM     11  H           0     131.801 127.800 147.579  0.00  0.00     0.174 HD
ATOM     12  H           0     132.308 127.543 149.160  0.00  0.00     0.174 HD
ATOM     13  C           0     135.751 129.194 148.234  0.00  0.00     0.187 C 
ATOM     14  N           0     134.749 128.295 148.818  0.00  0.00    -0.194 N 
ATOM     15  N           0     135.787 130.483 148.924  0.00  0.00    -0.186 N 
ATOM     16  C           0     136.568 130.280 150.153  0.00  0.00     0.147 C 
ATOM     17  C           0     137.497 129.074 149.894  0.00  0.00     0.057 C 
ATOM     18  C           0     137.162 128.615 148.456  0.00  0.00     0.172 C 
ATOM     19  H           0     133.973 132.199 146.940  0.00  0.00     0.178 HD
ATOM     20  H           0     133.536 128.534 145.871  0.00  0.00     0.178 HD
ATOM     21  H           0     134.815 127.834 149.668  0.00  0.00     0.180 HD
ENDROOT
BRANCH   6  22
ATOM     22  C           0     136.708 131.182 145.877  0.00  0.00     0.208 C 
BRANCH  22  23
ATOM     23  O           0     136.725 131.664 144.507  0.00  0.00    -0.302 OA
BRANCH  23  24
ATOM     24  C           0     136.287 132.906 144.225  0.00  0.00     0.362 C 
ATOM     25  N           0     135.247 133.078 143.385  0.00  0.00    -0.337 N 
ATOM     26  C           0     134.770 134.428 143.077  0.00  0.00     0.154 C 
ATOM     27  C           0     134.595 131.915 142.778  0.00  0.00     0.154 C 
ATOM     28  O           0     136.828 133.871 144.728  0.00  0.00    -0.238 OA
ENDBRANCH  23  24
ENDBRANCH  22  23
ENDBRANCH   6  22
BRANCH  18  29
ATOM     29  O           0     138.098 129.153 147.520  0.00  0.00    -0.391 OA
ATOM     30  H           0     138.124 130.108 147.668  0.00  0.00     0.210 HD
ENDBRANCH  18  29
TORSDOF 4
ENDMDL
MODEL 8
REMARK VINA RESULT:      -6.1      9.956     12.702
REMARK  4 active torsions:
REMARK  status: ('A' for Active; 'I' for Inactive)
REMARK    1  A    between atoms: C_6  and  C_7 
REMARK    2  A    between atoms: C_7  and  O_8 
REMARK    3  A    between atoms: O_8  and  C_9 
REMARK       I    between atoms: C_9  and  N_10 
REMARK    4  A    between atoms: C_25  and  O_26 
ROOT
ATOM      1  N           0     131.143 137.360 132.511  0.00  0.00    -0.235 N 
ATOM      2  H           0     130.256 137.734 132.391  0.00  0.00     0.174 HD
ATOM      3  H           0     131.907 137.779 132.085  0.00  0.00     0.174 HD
ATOM      4  C           0     131.308 136.297 133.247  0.00  0.00     0.672 C 
ATOM      5  N           0     130.250 135.668 133.879  0.00  0.00    -0.218 N 
ATOM      6  C           0     130.344 134.233 134.127  0.00  0.00     0.151 C 
ATOM      7  C           0     131.635 133.845 134.823  0.00  0.00     0.177 C 
ATOM      8  N           0     131.531 134.167 136.260  0.00  0.00    -0.216 N 
ATOM      9  C           0     132.554 135.019 136.592  0.00  0.00     0.670 C 
ATOM     10  N           0     132.632 135.664 137.721  0.00  0.00    -0.235 N 
ATOM     11  H           0     131.937 135.555 138.391  0.00  0.00     0.174 HD
ATOM     12  H           0     133.383 136.252 137.894  0.00  0.00     0.174 HD
ATOM     13  C           0     132.849 134.629 134.355  0.00  0.00     0.187 C 
ATOM     14  N           0     133.487 135.109 135.586  0.00  0.00    -0.194 N 
ATOM     15  N           0     132.543 135.728 133.441  0.00  0.00    -0.186 N 
ATOM     16  C           0     133.799 136.064 132.754  0.00  0.00     0.147 C 
ATOM     17  C           0     134.679 134.797 132.793  0.00  0.00     0.057 C 
ATOM     18  C           0     133.839 133.753 133.563  0.00  0.00     0.172 C 
ATOM     19  H           0     129.464 136.169 134.150  0.00  0.00     0.178 HD
ATOM     20  H           0     130.853 133.833 136.867  0.00  0.00     0.178 HD
ATOM     21  H           0     134.398 135.431 135.674  0.00  0.00     0.180 HD
ENDROOT
BRANCH   6  22
ATOM     22  C           0     130.263 133.492 132.791  0.00  0.00     0.208 C 
BRANCH  22  23
ATOM     23  O           0     130.498 132.076 133.008  0.00  0.00    -0.302 OA
BRANCH  23  24
ATOM     24  C           0     129.659 131.166 132.477  0.00  0.00     0.362 C 
ATOM     25  N           0     130.023 129.870 132.417  0.00  0.00    -0.337 N 
ATOM     26  C           0     129.112 128.879 131.840  0.00  0.00     0.154 C 
ATOM     27  C           0     131.331 129.451 132.928  0.00  0.00     0.154 C 
ATOM     28  O           0     128.574 131.512 132.053  0.00  0.00    -0.238 OA
ENDBRANCH  23  24
ENDBRANCH  22  23
ENDBRANCH   6  22
BRANCH  18  29
ATOM     29  O           0     133.155 132.883 132.658  0.00  0.00    -0.391 OA
ATOM     30  H           0     132.853 133.430 131.920  0.00  0.00     0.210 HD
ENDBRANCH  18  29
TORSDOF 4
ENDMDL
MODEL 9
REMARK VINA RESULT:      -6.0      2.951      5.594
REMARK  4 active torsions:
REMARK  status: ('A' for Active; 'I' for Inactive)
REMARK    1  A    between atoms: C_6  and  C_7 
REMARK    2  A    between atoms: C_7  and  O_8 
REMARK    3  A    between atoms: O_8  and  C_9 
REMARK       I    between atoms: C_9  and  N_10 
REMARK    4  A    between atoms: C_25  and  O_26 
ROOT
ATOM      1  N           0     136.032 134.453 147.241  0.00  0.00    -0.235 N 
ATOM      2  H           0     136.469 135.312 147.125  0.00  0.00     0.174 HD
ATOM      3  H           0     135.439 134.310 147.994  0.00  0.00     0.174 HD
ATOM      4  C           0     136.240 133.495 146.382  0.00  0.00     0.672 C 
ATOM      5  N           0     137.073 133.655 145.289  0.00  0.00    -0.218 N 
ATOM      6  C           0     137.756 132.479 144.759  0.00  0.00     0.151 C 
ATOM      7  C           0     136.808 131.325 144.493  0.00  0.00     0.177 C 
ATOM      8  N           0     136.083 131.570 143.231  0.00  0.00    -0.216 N 
ATOM      9  C           0     134.737 131.559 143.491  0.00  0.00     0.670 C 
ATOM     10  N           0     133.825 131.951 142.647  0.00  0.00    -0.235 N 
ATOM     11  H           0     134.084 132.278 141.770  0.00  0.00     0.174 HD
ATOM     12  H           0     132.888 131.917 142.893  0.00  0.00     0.174 HD
ATOM     13  C           0     135.707 131.177 145.529  0.00  0.00     0.187 C 
ATOM     14  N           0     134.467 131.081 144.752  0.00  0.00    -0.194 N 
ATOM     15  N           0     135.649 132.262 146.508  0.00  0.00    -0.186 N 
ATOM     16  C           0     134.878 131.753 147.652  0.00  0.00     0.147 C 
ATOM     17  C           0     135.011 130.215 147.627  0.00  0.00     0.057 C 
ATOM     18  C           0     135.882 129.910 146.388  0.00  0.00     0.172 C 
ATOM     19  H           0     137.200 134.528 144.885  0.00  0.00     0.178 HD
ATOM     20  H           0     136.492 131.716 142.363  0.00  0.00     0.178 HD
ATOM     21  H           0     133.614 130.745 145.068  0.00  0.00     0.180 HD
ENDROOT
BRANCH   6  22
ATOM     22  C           0     138.814 132.025 145.767  0.00  0.00     0.208 C 
BRANCH  22  23
ATOM     23  O           0     138.966 133.035 146.798  0.00  0.00    -0.302 OA
BRANCH  23  24
ATOM     24  C           0     139.917 132.897 147.741  0.00  0.00     0.362 C 
ATOM     25  N           0     139.583 132.475 148.977  0.00  0.00    -0.337 N 
ATOM     26  C           0     140.617 132.324 150.004  0.00  0.00     0.154 C 
ATOM     27  C           0     138.186 132.169 149.294  0.00  0.00     0.154 C 
ATOM     28  O           0     141.076 133.150 147.478  0.00  0.00    -0.238 OA
ENDBRANCH  23  24
ENDBRANCH  22  23
ENDBRANCH   6  22
BRANCH  18  29
ATOM     29  O           0     137.249 129.720 146.763  0.00  0.00    -0.391 OA
ATOM     30  H           0     137.775 129.814 145.957  0.00  0.00     0.210 HD
ENDBRANCH  18  29
TORSDOF 4
ENDMDL
