# created with PyMOL 2.3.4
@<TRIPOS>MOLECULE
ligand_out_0001
32 35 1                 
SMALL
USER_CHARGES
@<TRIPOS>ATOM
1	   N	134.400	136.180	142.199	N.3	1	UNK0	-0.235	
2	   N	134.217	134.095	143.265	N.pl3	1	UNK0	-0.200	
3	   N	135.832	135.659	143.992	N.3	1	UNK0	-0.211	
4	   C	134.799	135.344	143.116	C.3	1	UNK0	0.670	
5	   C	135.105	132.948	143.519	C.2	1	UNK0	0.244	
6	   C	136.056	133.318	144.661	C.3	1	UNK0	0.101	
7	   C	136.799	134.608	144.287	C.3	1	UNK0	0.119	
8	   C	137.652	134.317	143.045	C.2	1	UNK0	0.243	
9	   C	137.075	132.203	144.889	C.2	1	UNK0	0.177	
10	   C	138.611	133.184	143.430	C.3	1	UNK0	0.311	
11	   C	137.980	132.599	146.065	C.3	1	UNK0	0.134	
12	   C	138.737	133.877	145.654	C.2	1	UNK0	0.198	
13	   C	137.736	135.004	145.427	C.2	1	UNK0	0.182	
14	   C	138.970	131.470	146.361	C.2	1	UNK0	0.207	
15	   O	137.885	132.005	143.736	O.2	1	UNK0	-0.322	
16	   O	139.477	133.608	144.467	O.2	1	UNK0	-0.319	
17	   O	137.185	132.863	147.222	O.2	1	UNK0	-0.382	
18	   O	138.333	130.210	146.143	O.2	1	UNK0	-0.398	
19	   O	138.433	136.201	145.080	O.2	1	UNK0	-0.390	
20	   O	134.326	131.809	143.893	O.2	1	UNK0	-0.376	
21	   O	139.432	132.906	142.294	O.2	1	UNK0	-0.341	
22	   O	136.816	133.907	141.960	O.2	1	UNK0	-0.385	
23	   H	133.680	135.933	141.598	 H	1	UNK0	0.174	
24	   H	134.823	137.050	142.119	 H	1	UNK0	0.174	
25	   H	133.256	133.980	143.205	 H	1	UNK0	0.180	
26	   H	135.901	136.539	144.392	 H	1	UNK0	0.178	
27	   H	137.453	132.225	147.897	 H	1	UNK0	0.210	
28	   H	138.972	129.650	145.681	 H	1	UNK0	0.209	
29	   H	139.005	135.984	144.331	 H	1	UNK0	0.210	
30	   H	133.817	131.550	143.111	 H	1	UNK0	0.212	
31	   H	139.316	131.968	142.089	 H	1	UNK0	0.215	
32	   H	137.402	133.664	141.231	 H	1	UNK0	0.210	
@<TRIPOS>BOND
1 1 4 1
2 1 23 1
3 1 24 1
4 2 5 1
5 2 25 1
6 3 26 1
7 2 4 1
8 3 4 1
9 5 6 1
10 5 20 2
11 6 7 1
12 6 9 1
13 3 7 1
14 7 8 1
15 7 13 1
16 8 10 1
17 8 22 2
18 9 11 1
19 9 15 2
20 10 16 2
21 10 21 2
22 11 12 1
23 11 14 1
24 11 17 2
25 12 13 1
26 13 19 2
27 14 18 2
28 10 15 2
29 12 16 2
30 17 27 1
31 18 28 1
32 19 29 1
33 20 30 1
34 21 31 1
35 22 32 1
@<TRIPOS>SUBSTRUCTURE
1	UNK0	1	GROUP	1 ****	UNK
