MODEL 1
REMARK VINA RESULT:      -7.9      0.000      0.000
REMARK  7 active torsions:
REMARK  status: ('A' for Active; 'I' for Inactive)
REMARK    1  A    between atoms: C_6  and  O_7 
REMARK    2  A    between atoms: C_10  and  O_11 
REMARK    3  A    between atoms: C_15  and  O_16 
REMARK    4  A    between atoms: C_18  and  O_19 
REMARK    5  A    between atoms: C_18  and  C_20 
REMARK    6  A    between atoms: C_20  and  O_21 
REMARK    7  A    between atoms: C_23  and  O_24 
ROOT
ATOM      1  N           0     134.400 136.180 142.199  0.00  0.00    -0.235 N 
ATOM      2  H           0     133.680 135.933 141.598  0.00  0.00     0.174 HD
ATOM      3  H           0     134.823 137.050 142.119  0.00  0.00     0.174 HD
ATOM      4  C           0     134.799 135.344 143.116  0.00  0.00     0.670 C 
ATOM      5  N           0     134.217 134.095 143.265  0.00  0.00    -0.200 N 
ATOM      6  C           0     135.105 132.948 143.519  0.00  0.00     0.244 C 
ATOM      7  C           0     136.056 133.318 144.661  0.00  0.00     0.101 C 
ATOM      8  C           0     136.799 134.608 144.287  0.00  0.00     0.119 C 
ATOM      9  C           0     137.652 134.317 143.045  0.00  0.00     0.243 C 
ATOM     10  N           0     135.832 135.659 143.992  0.00  0.00    -0.211 N 
ATOM     11  C           0     137.075 132.203 144.889  0.00  0.00     0.177 C 
ATOM     12  O           0     137.885 132.005 143.736  0.00  0.00    -0.322 OA
ATOM     13  C           0     138.611 133.184 143.430  0.00  0.00     0.311 C 
ATOM     14  O           0     139.477 133.608 144.467  0.00  0.00    -0.319 OA
ATOM     15  C           0     137.980 132.599 146.065  0.00  0.00     0.134 C 
ATOM     16  C           0     138.737 133.877 145.654  0.00  0.00     0.198 C 
ATOM     17  C           0     137.736 135.004 145.427  0.00  0.00     0.182 C 
ATOM     18  H           0     133.256 133.980 143.205  0.00  0.00     0.180 HD
ATOM     19  H           0     135.901 136.539 144.392  0.00  0.00     0.178 HD
ENDROOT
BRANCH  15  20
ATOM     20  O           0     137.185 132.863 147.222  0.00  0.00    -0.382 OA
ATOM     21  H           0     137.453 132.225 147.897  0.00  0.00     0.210 HD
ENDBRANCH  15  20
BRANCH  15  22
ATOM     22  C           0     138.970 131.470 146.361  0.00  0.00     0.207 C 
BRANCH  22  23
ATOM     23  O           0     138.333 130.210 146.143  0.00  0.00    -0.398 OA
ATOM     24  H           0     138.972 129.650 145.681  0.00  0.00     0.209 HD
ENDBRANCH  22  23
ENDBRANCH  15  22
BRANCH  17  25
ATOM     25  O           0     138.433 136.201 145.080  0.00  0.00    -0.390 OA
ATOM     26  H           0     139.005 135.984 144.331  0.00  0.00     0.210 HD
ENDBRANCH  17  25
BRANCH   6  27
ATOM     27  O           0     134.326 131.809 143.893  0.00  0.00    -0.376 OA
ATOM     28  H           0     133.817 131.550 143.111  0.00  0.00     0.212 HD
ENDBRANCH   6  27
BRANCH  13  29
ATOM     29  O           0     139.432 132.906 142.294  0.00  0.00    -0.341 OA
ATOM     30  H           0     139.316 131.968 142.089  0.00  0.00     0.215 HD
ENDBRANCH  13  29
BRANCH   9  31
ATOM     31  O           0     136.816 133.907 141.960  0.00  0.00    -0.385 OA
ATOM     32  H           0     137.402 133.664 141.231  0.00  0.00     0.210 HD
ENDBRANCH   9  31
TORSDOF 7
ENDMDL
MODEL 2
REMARK VINA RESULT:      -7.4      1.912      3.778
REMARK  7 active torsions:
REMARK  status: ('A' for Active; 'I' for Inactive)
REMARK    1  A    between atoms: C_6  and  O_7 
REMARK    2  A    between atoms: C_10  and  O_11 
REMARK    3  A    between atoms: C_15  and  O_16 
REMARK    4  A    between atoms: C_18  and  O_19 
REMARK    5  A    between atoms: C_18  and  C_20 
REMARK    6  A    between atoms: C_20  and  O_21 
REMARK    7  A    between atoms: C_23  and  O_24 
ROOT
ATOM      1  N           0     134.956 132.476 141.851  0.00  0.00    -0.235 N 
ATOM      2  H           0     134.640 133.096 141.175  0.00  0.00     0.174 HD
ATOM      3  H           0     134.426 131.697 142.082  0.00  0.00     0.174 HD
ATOM      4  C           0     136.095 132.688 142.448  0.00  0.00     0.670 C 
ATOM      5  N           0     136.884 133.786 142.142  0.00  0.00    -0.200 N 
ATOM      6  C           0     137.524 134.506 143.257  0.00  0.00     0.244 C 
ATOM      7  C           0     138.225 133.481 144.153  0.00  0.00     0.101 C 
ATOM      8  C           0     137.199 132.431 144.599  0.00  0.00     0.119 C 
ATOM      9  C           0     136.135 133.141 145.447  0.00  0.00     0.243 C 
ATOM     10  N           0     136.579 131.827 143.426  0.00  0.00    -0.211 N 
ATOM     11  C           0     138.809 134.165 145.388  0.00  0.00     0.177 C 
ATOM     12  O           0     137.786 134.760 146.177  0.00  0.00    -0.322 OA
ATOM     13  C           0     136.873 133.775 146.632  0.00  0.00     0.311 C 
ATOM     14  O           0     137.469 132.768 147.430  0.00  0.00    -0.319 OA
ATOM     15  C           0     139.534 133.110 146.235  0.00  0.00     0.134 C 
ATOM     16  C           0     138.480 132.085 146.696  0.00  0.00     0.198 C 
ATOM     17  C           0     137.889 131.388 145.476  0.00  0.00     0.182 C 
ATOM     18  H           0     137.011 134.071 141.224  0.00  0.00     0.180 HD
ATOM     19  H           0     136.511 130.864 143.327  0.00  0.00     0.178 HD
ENDROOT
BRANCH  15  20
ATOM     20  O           0     140.529 132.454 145.446  0.00  0.00    -0.382 OA
ATOM     21  H           0     140.105 131.684 145.045  0.00  0.00     0.210 HD
ENDBRANCH  15  20
BRANCH  15  22
ATOM     22  C           0     140.189 133.777 147.447  0.00  0.00     0.207 C 
BRANCH  22  23
ATOM     23  O           0     140.256 135.188 147.233  0.00  0.00    -0.398 OA
ATOM     24  H           0     140.099 135.336 146.291  0.00  0.00     0.209 HD
ENDBRANCH  22  23
ENDBRANCH  15  22
BRANCH  17  25
ATOM     25  O           0     136.937 130.410 145.898  0.00  0.00    -0.390 OA
ATOM     26  H           0     137.299 129.546 145.658  0.00  0.00     0.210 HD
ENDBRANCH  17  25
BRANCH   6  27
ATOM     27  O           0     138.483 135.433 142.744  0.00  0.00    -0.376 OA
ATOM     28  H           0     138.270 135.567 141.809  0.00  0.00     0.212 HD
ENDBRANCH   6  27
BRANCH  13  29
ATOM     29  O           0     135.900 134.429 147.450  0.00  0.00    -0.341 OA
ATOM     30  H           0     135.691 135.267 147.018  0.00  0.00     0.215 HD
ENDBRANCH  13  29
BRANCH   9  31
ATOM     31  O           0     135.487 134.154 144.673  0.00  0.00    -0.385 OA
ATOM     32  H           0     135.885 134.997 144.927  0.00  0.00     0.210 HD
ENDBRANCH   9  31
TORSDOF 7
ENDMDL
MODEL 3
REMARK VINA RESULT:      -7.2      2.125      3.984
REMARK  7 active torsions:
REMARK  status: ('A' for Active; 'I' for Inactive)
REMARK    1  A    between atoms: C_6  and  O_7 
REMARK    2  A    between atoms: C_10  and  O_11 
REMARK    3  A    between atoms: C_15  and  O_16 
REMARK    4  A    between atoms: C_18  and  O_19 
REMARK    5  A    between atoms: C_18  and  C_20 
REMARK    6  A    between atoms: C_20  and  O_21 
REMARK    7  A    between atoms: C_23  and  O_24 
ROOT
ATOM      1  N           0     139.776 136.214 146.241  0.00  0.00    -0.235 N 
ATOM      2  H           0     140.515 136.603 145.747  0.00  0.00     0.174 HD
ATOM      3  H           0     139.760 136.264 147.210  0.00  0.00     0.174 HD
ATOM      4  C           0     138.803 135.627 145.603  0.00  0.00     0.670 C 
ATOM      5  N           0     138.788 135.540 144.220  0.00  0.00    -0.200 N 
ATOM      6  C           0     138.364 134.265 143.615  0.00  0.00     0.244 C 
ATOM      7  C           0     137.048 133.834 144.270  0.00  0.00     0.101 C 
ATOM      8  C           0     137.251 133.765 145.789  0.00  0.00     0.119 C 
ATOM      9  C           0     138.292 132.674 146.076  0.00  0.00     0.243 C 
ATOM     10  N           0     137.730 135.053 146.276  0.00  0.00    -0.211 N 
ATOM     11  C           0     136.623 132.459 143.758  0.00  0.00     0.177 C 
ATOM     12  O           0     137.586 131.467 144.095  0.00  0.00    -0.322 OA
ATOM     13  C           0     137.727 131.369 145.503  0.00  0.00     0.311 C 
ATOM     14  O           0     136.529 131.020 146.174  0.00  0.00    -0.319 OA
ATOM     15  C           0     135.283 132.087 144.408  0.00  0.00     0.134 C 
ATOM     16  C           0     135.519 131.992 145.928  0.00  0.00     0.198 C 
ATOM     17  C           0     135.938 133.359 146.458  0.00  0.00     0.182 C 
ATOM     18  H           0     139.046 136.294 143.668  0.00  0.00     0.180 HD
ATOM     19  H           0     137.317 135.494 147.034  0.00  0.00     0.178 HD
ENDROOT
BRANCH  15  20
ATOM     20  O           0     134.313 133.099 144.134  0.00  0.00    -0.382 OA
ATOM     21  H           0     134.803 133.904 143.916  0.00  0.00     0.210 HD
ENDBRANCH  15  20
BRANCH  15  22
ATOM     22  C           0     134.798 130.742 143.864  0.00  0.00     0.207 C 
BRANCH  22  23
ATOM     23  O           0     133.857 130.966 142.812  0.00  0.00    -0.398 OA
ATOM     24  H           0     133.504 131.857 142.939  0.00  0.00     0.209 HD
ENDBRANCH  22  23
ENDBRANCH  15  22
BRANCH  17  25
ATOM     25  O           0     136.124 133.288 147.872  0.00  0.00    -0.390 OA
ATOM     26  H           0     137.044 133.532 148.046  0.00  0.00     0.210 HD
ENDBRANCH  17  25
BRANCH   6  27
ATOM     27  O           0     138.169 134.439 142.210  0.00  0.00    -0.376 OA
ATOM     28  H           0     138.808 135.106 141.920  0.00  0.00     0.212 HD
ENDBRANCH   6  27
BRANCH  13  29
ATOM     29  O           0     138.671 130.332 145.774  0.00  0.00    -0.341 OA
ATOM     30  H           0     139.426 130.481 145.189  0.00  0.00     0.215 HD
ENDBRANCH  13  29
BRANCH   9  31
ATOM     31  O           0     139.529 132.997 145.436  0.00  0.00    -0.385 OA
ATOM     32  H           0     139.474 133.925 145.173  0.00  0.00     0.210 HD
ENDBRANCH   9  31
TORSDOF 7
ENDMDL
MODEL 4
REMARK VINA RESULT:      -7.2      2.667      4.547
REMARK  7 active torsions:
REMARK  status: ('A' for Active; 'I' for Inactive)
REMARK    1  A    between atoms: C_6  and  O_7 
REMARK    2  A    between atoms: C_10  and  O_11 
REMARK    3  A    between atoms: C_15  and  O_16 
REMARK    4  A    between atoms: C_18  and  O_19 
REMARK    5  A    between atoms: C_18  and  C_20 
REMARK    6  A    between atoms: C_20  and  O_21 
REMARK    7  A    between atoms: C_23  and  O_24 
ROOT
ATOM      1  N           0     135.145 128.771 147.180  0.00  0.00    -0.235 N 
ATOM      2  H           0     134.240 128.427 147.114  0.00  0.00     0.174 HD
ATOM      3  H           0     135.715 128.501 147.916  0.00  0.00     0.174 HD
ATOM      4  C           0     135.595 129.596 146.277  0.00  0.00     0.670 C 
ATOM      5  N           0     134.812 130.002 145.207  0.00  0.00    -0.200 N 
ATOM      6  C           0     134.863 131.422 144.817  0.00  0.00     0.244 C 
ATOM      7  C           0     136.333 131.835 144.690  0.00  0.00     0.101 C 
ATOM      8  C           0     137.048 131.527 146.012  0.00  0.00     0.119 C 
ATOM      9  C           0     136.413 132.397 147.105  0.00  0.00     0.243 C 
ATOM     10  N           0     136.883 130.116 146.339  0.00  0.00    -0.211 N 
ATOM     11  C           0     136.443 133.330 144.397  0.00  0.00     0.177 C 
ATOM     12  O           0     135.897 134.102 145.460  0.00  0.00    -0.322 OA
ATOM     13  C           0     136.600 133.854 146.667  0.00  0.00     0.311 C 
ATOM     14  O           0     137.979 134.172 146.600  0.00  0.00    -0.319 OA
ATOM     15  C           0     137.928 133.690 144.239  0.00  0.00     0.134 C 
ATOM     16  C           0     138.618 133.403 145.586  0.00  0.00     0.198 C 
ATOM     17  C           0     138.522 131.912 145.893  0.00  0.00     0.182 C 
ATOM     18  H           0     134.250 129.373 144.731  0.00  0.00     0.180 HD
ATOM     19  H           0     137.638 129.561 146.586  0.00  0.00     0.178 HD
ENDROOT
BRANCH  15  20
ATOM     20  O           0     138.516 132.884 143.217  0.00  0.00    -0.382 OA
ATOM     21  H           0     137.926 132.130 143.080  0.00  0.00     0.210 HD
ENDBRANCH  15  20
BRANCH  15  22
ATOM     22  C           0     138.067 135.170 143.879  0.00  0.00     0.207 C 
BRANCH  22  23
ATOM     23  O           0     136.802 135.675 143.447  0.00  0.00    -0.398 OA
ATOM     24  H           0     136.135 135.299 144.037  0.00  0.00     0.209 HD
ENDBRANCH  22  23
ENDBRANCH  15  22
BRANCH  17  25
ATOM     25  O           0     139.191 131.633 147.124  0.00  0.00    -0.390 OA
ATOM     26  H           0     139.060 132.403 147.694  0.00  0.00     0.210 HD
ENDBRANCH  17  25
BRANCH   6  27
ATOM     27  O           0     134.203 131.601 143.562  0.00  0.00    -0.376 OA
ATOM     28  H           0     134.758 131.175 142.892  0.00  0.00     0.212 HD
ENDBRANCH   6  27
BRANCH  13  29
ATOM     29  O           0     136.032 134.688 147.679  0.00  0.00    -0.341 OA
ATOM     30  H           0     135.115 134.404 147.793  0.00  0.00     0.215 HD
ENDBRANCH  13  29
BRANCH   9  31
ATOM     31  O           0     135.021 132.095 147.226  0.00  0.00    -0.385 OA
ATOM     32  H           0     134.577 132.915 147.477  0.00  0.00     0.210 HD
ENDBRANCH   9  31
TORSDOF 7
ENDMDL
MODEL 5
REMARK VINA RESULT:      -7.2      2.755      4.787
REMARK  7 active torsions:
REMARK  status: ('A' for Active; 'I' for Inactive)
REMARK    1  A    between atoms: C_6  and  O_7 
REMARK    2  A    between atoms: C_10  and  O_11 
REMARK    3  A    between atoms: C_15  and  O_16 
REMARK    4  A    between atoms: C_18  and  O_19 
REMARK    5  A    between atoms: C_18  and  C_20 
REMARK    6  A    between atoms: C_20  and  O_21 
REMARK    7  A    between atoms: C_23  and  O_24 
ROOT
ATOM      1  N           0     134.345 130.655 149.237  0.00  0.00    -0.235 N 
ATOM      2  H           0     134.573 130.690 150.179  0.00  0.00     0.174 HD
ATOM      3  H           0     133.861 129.894 148.881  0.00  0.00     0.174 HD
ATOM      4  C           0     134.687 131.636 148.448  0.00  0.00     0.670 C 
ATOM      5  N           0     135.374 132.743 148.919  0.00  0.00    -0.200 N 
ATOM      6  C           0     136.473 133.274 148.093  0.00  0.00     0.244 C 
ATOM      7  C           0     135.962 133.436 146.659  0.00  0.00     0.101 C 
ATOM      8  C           0     135.415 132.088 146.173  0.00  0.00     0.119 C 
ATOM      9  C           0     136.581 131.090 146.142  0.00  0.00     0.243 C 
ATOM     10  N           0     134.384 131.621 147.091  0.00  0.00    -0.211 N 
ATOM     11  C           0     137.097 133.878 145.736  0.00  0.00     0.177 C 
ATOM     12  O           0     138.130 132.899 145.690  0.00  0.00    -0.322 OA
ATOM     13  C           0     137.629 131.672 145.187  0.00  0.00     0.311 C 
ATOM     14  O           0     137.097 131.765 143.877  0.00  0.00    -0.319 OA
ATOM     15  C           0     136.533 134.065 144.320  0.00  0.00     0.134 C 
ATOM     16  C           0     136.019 132.694 143.843  0.00  0.00     0.198 C 
ATOM     17  C           0     134.881 132.239 144.750  0.00  0.00     0.182 C 
ATOM     18  H           0     135.139 133.156 149.764  0.00  0.00     0.180 HD
ATOM     19  H           0     133.520 131.317 146.772  0.00  0.00     0.178 HD
ENDROOT
BRANCH  15  20
ATOM     20  O           0     135.452 135.000 144.349  0.00  0.00    -0.382 OA
ATOM     21  H           0     135.712 135.709 144.953  0.00  0.00     0.210 HD
ENDBRANCH  15  20
BRANCH  15  22
ATOM     22  C           0     137.633 134.573 143.386  0.00  0.00     0.207 C 
BRANCH  22  23
ATOM     23  O           0     137.529 133.909 142.125  0.00  0.00    -0.398 OA
ATOM     24  H           0     137.437 132.965 142.313  0.00  0.00     0.209 HD
ENDBRANCH  22  23
ENDBRANCH  15  22
BRANCH  17  25
ATOM     25  O           0     134.375 130.984 144.292  0.00  0.00    -0.390 OA
ATOM     26  H           0     134.211 130.446 145.078  0.00  0.00     0.210 HD
ENDBRANCH  17  25
BRANCH   6  27
ATOM     27  O           0     136.888 134.543 148.603  0.00  0.00    -0.376 OA
ATOM     28  H           0     136.356 135.213 148.151  0.00  0.00     0.212 HD
ENDBRANCH   6  27
BRANCH  13  29
ATOM     29  O           0     138.720 130.750 145.126  0.00  0.00    -0.341 OA
ATOM     30  H           0     138.605 130.235 144.316  0.00  0.00     0.215 HD
ENDBRANCH  13  29
BRANCH   9  31
ATOM     31  O           0     137.136 130.944 147.452  0.00  0.00    -0.385 OA
ATOM     32  H           0     138.020 130.568 147.341  0.00  0.00     0.210 HD
ENDBRANCH   9  31
TORSDOF 7
ENDMDL
MODEL 6
REMARK VINA RESULT:      -7.1      2.543      4.809
REMARK  7 active torsions:
REMARK  status: ('A' for Active; 'I' for Inactive)
REMARK    1  A    between atoms: C_6  and  O_7 
REMARK    2  A    between atoms: C_10  and  O_11 
REMARK    3  A    between atoms: C_15  and  O_16 
REMARK    4  A    between atoms: C_18  and  O_19 
REMARK    5  A    between atoms: C_18  and  C_20 
REMARK    6  A    between atoms: C_20  and  O_21 
REMARK    7  A    between atoms: C_23  and  O_24 
ROOT
ATOM      1  N           0     140.161 132.736 148.428  0.00  0.00    -0.235 N 
ATOM      2  H           0     141.048 132.345 148.434  0.00  0.00     0.174 HD
ATOM      3  H           0     139.650 132.794 149.251  0.00  0.00     0.174 HD
ATOM      4  C           0     139.655 133.187 147.315  0.00  0.00     0.670 C 
ATOM      5  N           0     140.354 133.126 146.120  0.00  0.00    -0.200 N 
ATOM      6  C           0     139.615 132.734 144.908  0.00  0.00     0.244 C 
ATOM      7  C           0     138.339 133.578 144.827  0.00  0.00     0.101 C 
ATOM      8  C           0     137.544 133.398 146.127  0.00  0.00     0.119 C 
ATOM      9  C           0     137.122 131.925 146.221  0.00  0.00     0.243 C 
ATOM     10  N           0     138.384 133.749 147.265  0.00  0.00    -0.211 N 
ATOM     11  C           0     137.478 133.131 143.647  0.00  0.00     0.177 C 
ATOM     12  O           0     137.060 131.779 143.801  0.00  0.00    -0.322 OA
ATOM     13  C           0     136.278 131.632 144.975  0.00  0.00     0.311 C 
ATOM     14  O           0     135.104 132.425 144.984  0.00  0.00    -0.319 OA
ATOM     15  C           0     136.234 134.028 143.582  0.00  0.00     0.134 C 
ATOM     16  C           0     135.437 133.806 144.881  0.00  0.00     0.198 C 
ATOM     17  C           0     136.279 134.253 146.071  0.00  0.00     0.182 C 
ATOM     18  H           0     141.300 133.337 146.083  0.00  0.00     0.180 HD
ATOM     19  H           0     138.074 134.353 147.957  0.00  0.00     0.178 HD
ENDROOT
BRANCH  15  20
ATOM     20  O           0     136.628 135.398 143.487  0.00  0.00    -0.382 OA
ATOM     21  H           0     137.590 135.407 143.398  0.00  0.00     0.210 HD
ENDBRANCH  15  20
BRANCH  15  22
ATOM     22  C           0     135.383 133.647 142.368  0.00  0.00     0.207 C 
BRANCH  22  23
ATOM     23  O           0     136.226 133.111 141.346  0.00  0.00    -0.398 OA
ATOM     24  H           0     135.666 132.559 140.783  0.00  0.00     0.209 HD
ENDBRANCH  22  23
ENDBRANCH  15  22
BRANCH  17  25
ATOM     25  O           0     135.532 134.084 147.277  0.00  0.00    -0.390 OA
ATOM     26  H           0     136.156 134.190 148.008  0.00  0.00     0.210 HD
ENDBRANCH  17  25
BRANCH   6  27
ATOM     27  O           0     140.423 132.971 143.753  0.00  0.00    -0.376 OA
ATOM     28  H           0     140.708 133.895 143.797  0.00  0.00     0.212 HD
ENDBRANCH   6  27
BRANCH  13  29
ATOM     29  O           0     135.856 130.269 145.047  0.00  0.00    -0.341 OA
ATOM     30  H           0     136.168 129.925 145.895  0.00  0.00     0.215 HD
ENDBRANCH  13  29
BRANCH   9  31
ATOM     31  O           0     138.279 131.084 146.239  0.00  0.00    -0.385 OA
ATOM     32  H           0     138.379 130.727 145.347  0.00  0.00     0.210 HD
ENDBRANCH   9  31
TORSDOF 7
ENDMDL
MODEL 7
REMARK VINA RESULT:      -7.1      2.799      4.425
REMARK  7 active torsions:
REMARK  status: ('A' for Active; 'I' for Inactive)
REMARK    1  A    between atoms: C_6  and  O_7 
REMARK    2  A    between atoms: C_10  and  O_11 
REMARK    3  A    between atoms: C_15  and  O_16 
REMARK    4  A    between atoms: C_18  and  O_19 
REMARK    5  A    between atoms: C_18  and  C_20 
REMARK    6  A    between atoms: C_20  and  O_21 
REMARK    7  A    between atoms: C_23  and  O_24 
ROOT
ATOM      1  N           0     140.270 134.114 148.602  0.00  0.00    -0.235 N 
ATOM      2  H           0     140.023 134.396 149.496  0.00  0.00     0.174 HD
ATOM      3  H           0     141.173 134.260 148.278  0.00  0.00     0.174 HD
ATOM      4  C           0     139.390 133.533 147.836  0.00  0.00     0.670 C 
ATOM      5  N           0     138.093 133.302 148.264  0.00  0.00    -0.200 N 
ATOM      6  C           0     136.998 133.555 147.311  0.00  0.00     0.244 C 
ATOM      7  C           0     137.338 132.860 145.990  0.00  0.00     0.101 C 
ATOM      8  C           0     138.708 133.356 145.509  0.00  0.00     0.119 C 
ATOM      9  C           0     138.592 134.861 145.228  0.00  0.00     0.243 C 
ATOM     10  N           0     139.704 133.119 146.546  0.00  0.00    -0.211 N 
ATOM     11  C           0     136.287 133.186 144.929  0.00  0.00     0.177 C 
ATOM     12  O           0     136.252 134.582 144.656  0.00  0.00    -0.322 OA
ATOM     13  C           0     137.505 135.022 144.158  0.00  0.00     0.311 C 
ATOM     14  O           0     137.901 134.382 142.959  0.00  0.00    -0.319 OA
ATOM     15  C           0     136.647 132.439 143.637  0.00  0.00     0.134 C 
ATOM     16  C           0     138.009 132.976 143.158  0.00  0.00     0.198 C 
ATOM     17  C           0     139.072 132.654 144.202  0.00  0.00     0.182 C 
ATOM     18  H           0     137.911 132.982 149.161  0.00  0.00     0.180 HD
ATOM     19  H           0     140.549 132.686 146.349  0.00  0.00     0.178 HD
ENDROOT
BRANCH  15  20
ATOM     20  O           0     136.747 131.038 143.899  0.00  0.00    -0.382 OA
ATOM     21  H           0     136.086 130.601 143.345  0.00  0.00     0.210 HD
ENDBRANCH  15  20
BRANCH  15  22
ATOM     22  C           0     135.575 132.693 142.576  0.00  0.00     0.207 C 
BRANCH  22  23
ATOM     23  O           0     136.202 133.003 141.330  0.00  0.00    -0.398 OA
ATOM     24  H           0     135.522 133.392 140.764  0.00  0.00     0.209 HD
ENDBRANCH  22  23
ENDBRANCH  15  22
BRANCH  17  25
ATOM     25  O           0     140.345 133.117 143.747  0.00  0.00    -0.390 OA
ATOM     26  H           0     140.774 132.370 143.309  0.00  0.00     0.210 HD
ENDBRANCH  17  25
BRANCH   6  27
ATOM     27  O           0     135.775 133.027 147.831  0.00  0.00    -0.376 OA
ATOM     28  H           0     135.198 133.784 148.011  0.00  0.00     0.212 HD
ENDBRANCH   6  27
BRANCH  13  29
ATOM     29  O           0     137.390 136.416 143.864  0.00  0.00    -0.341 OA
ATOM     30  H           0     138.205 136.835 144.171  0.00  0.00     0.215 HD
ENDBRANCH  13  29
BRANCH   9  31
ATOM     31  O           0     138.216 135.555 146.419  0.00  0.00    -0.385 OA
ATOM     32  H           0     138.797 135.237 147.123  0.00  0.00     0.210 HD
ENDBRANCH   9  31
TORSDOF 7
ENDMDL
MODEL 8
REMARK VINA RESULT:      -6.9      2.685      4.915
REMARK  7 active torsions:
REMARK  status: ('A' for Active; 'I' for Inactive)
REMARK    1  A    between atoms: C_6  and  O_7 
REMARK    2  A    between atoms: C_10  and  O_11 
REMARK    3  A    between atoms: C_15  and  O_16 
REMARK    4  A    between atoms: C_18  and  O_19 
REMARK    5  A    between atoms: C_18  and  C_20 
REMARK    6  A    between atoms: C_20  and  O_21 
REMARK    7  A    between atoms: C_23  and  O_24 
ROOT
ATOM      1  N           0     137.391 130.211 147.564  0.00  0.00    -0.235 N 
ATOM      2  H           0     137.837 130.509 148.373  0.00  0.00     0.174 HD
ATOM      3  H           0     137.543 129.314 147.228  0.00  0.00     0.174 HD
ATOM      4  C           0     136.584 131.016 146.931  0.00  0.00     0.670 C 
ATOM      5  N           0     136.338 132.303 147.383  0.00  0.00    -0.200 N 
ATOM      6  C           0     136.283 133.384 146.384  0.00  0.00     0.244 C 
ATOM      7  C           0     135.352 132.946 145.250  0.00  0.00     0.101 C 
ATOM      8  C           0     135.852 131.608 144.690  0.00  0.00     0.119 C 
ATOM      9  C           0     137.244 131.839 144.087  0.00  0.00     0.243 C 
ATOM     10  N           0     135.931 130.628 145.767  0.00  0.00    -0.211 N 
ATOM     11  C           0     135.349 133.987 144.131  0.00  0.00     0.177 C 
ATOM     12  O           0     136.645 134.128 143.560  0.00  0.00    -0.322 OA
ATOM     13  C           0     137.076 132.901 142.994  0.00  0.00     0.311 C 
ATOM     14  O           0     136.229 132.416 141.968  0.00  0.00    -0.319 OA
ATOM     15  C           0     134.375 133.526 143.037  0.00  0.00     0.134 C 
ATOM     16  C           0     134.914 132.199 142.469  0.00  0.00     0.198 C 
ATOM     17  C           0     134.919 131.146 143.572  0.00  0.00     0.182 C 
ATOM     18  H           0     136.205 132.485 148.326  0.00  0.00     0.180 HD
ATOM     19  H           0     135.541 129.745 145.679  0.00  0.00     0.178 HD
ENDROOT
BRANCH  15  20
ATOM     20  O           0     133.078 133.318 143.598  0.00  0.00    -0.382 OA
ATOM     21  H           0     133.208 132.862 144.441  0.00  0.00     0.210 HD
ENDBRANCH  15  20
BRANCH  15  22
ATOM     22  C           0     134.300 134.582 141.932  0.00  0.00     0.207 C 
BRANCH  22  23
ATOM     23  O           0     134.263 133.936 140.658  0.00  0.00    -0.398 OA
ATOM     24  H           0     133.347 133.662 140.511  0.00  0.00     0.209 HD
ENDBRANCH  22  23
ENDBRANCH  15  22
BRANCH  17  25
ATOM     25  O           0     135.383 129.902 143.044  0.00  0.00    -0.390 OA
ATOM     26  H           0     136.323 129.840 143.262  0.00  0.00     0.210 HD
ENDBRANCH  17  25
BRANCH   6  27
ATOM     27  O           0     135.775 134.575 146.991  0.00  0.00    -0.376 OA
ATOM     28  H           0     135.132 134.951 146.373  0.00  0.00     0.212 HD
ENDBRANCH   6  27
BRANCH  13  29
ATOM     29  O           0     138.358 133.122 142.403  0.00  0.00    -0.341 OA
ATOM     30  H           0     138.721 133.918 142.814  0.00  0.00     0.215 HD
ENDBRANCH  13  29
BRANCH   9  31
ATOM     31  O           0     138.143 132.308 145.095  0.00  0.00    -0.385 OA
ATOM     32  H           0     139.012 132.388 144.680  0.00  0.00     0.210 HD
ENDBRANCH   9  31
TORSDOF 7
ENDMDL
MODEL 9
REMARK VINA RESULT:      -6.8      2.756      4.798
REMARK  7 active torsions:
REMARK  status: ('A' for Active; 'I' for Inactive)
REMARK    1  A    between atoms: C_6  and  O_7 
REMARK    2  A    between atoms: C_10  and  O_11 
REMARK    3  A    between atoms: C_15  and  O_16 
REMARK    4  A    between atoms: C_18  and  O_19 
REMARK    5  A    between atoms: C_18  and  C_20 
REMARK    6  A    between atoms: C_20  and  O_21 
REMARK    7  A    between atoms: C_23  and  O_24 
ROOT
ATOM      1  N           0     137.200 128.957 147.838  0.00  0.00    -0.235 N 
ATOM      2  H           0     137.382 128.754 148.769  0.00  0.00     0.174 HD
ATOM      3  H           0     137.163 128.242 147.183  0.00  0.00     0.174 HD
ATOM      4  C           0     137.002 130.190 147.466  0.00  0.00     0.670 C 
ATOM      5  N           0     137.042 131.239 148.372  0.00  0.00    -0.200 N 
ATOM      6  C           0     137.725 132.478 147.961  0.00  0.00     0.244 C 
ATOM      7  C           0     137.199 132.883 146.580  0.00  0.00     0.101 C 
ATOM      8  C           0     137.401 131.711 145.611  0.00  0.00     0.119 C 
ATOM      9  C           0     138.910 131.463 145.480  0.00  0.00     0.243 C 
ATOM     10  N           0     136.745 130.521 146.141  0.00  0.00    -0.211 N 
ATOM     11  C           0     137.957 134.101 146.057  0.00  0.00     0.177 C 
ATOM     12  O           0     139.341 133.812 145.894  0.00  0.00    -0.322 OA
ATOM     13  C           0     139.523 132.766 144.954  0.00  0.00     0.311 C 
ATOM     14  O           0     139.014 133.060 143.666  0.00  0.00    -0.319 OA
ATOM     15  C           0     137.372 134.494 144.693  0.00  0.00     0.134 C 
ATOM     16  C           0     137.614 133.317 143.731  0.00  0.00     0.198 C 
ATOM     17  C           0     136.860 132.091 144.234  0.00  0.00     0.182 C 
ATOM     18  H           0     136.633 131.159 149.247  0.00  0.00     0.180 HD
ATOM     19  H           0     136.149 129.985 145.595  0.00  0.00     0.178 HD
ENDROOT
BRANCH  15  20
ATOM     20  O           0     135.968 134.732 144.818  0.00  0.00    -0.382 OA
ATOM     21  H           0     135.522 134.058 144.288  0.00  0.00     0.210 HD
ENDBRANCH  15  20
BRANCH  15  22
ATOM     22  C           0     138.068 135.754 144.174  0.00  0.00     0.207 C 
BRANCH  22  23
ATOM     23  O           0     138.769 136.387 145.246  0.00  0.00    -0.398 OA
ATOM     24  H           0     139.684 136.078 145.202  0.00  0.00     0.209 HD
ENDBRANCH  22  23
ENDBRANCH  15  22
BRANCH  17  25
ATOM     25  O           0     137.051 131.005 143.327  0.00  0.00    -0.390 OA
ATOM     26  H           0     136.323 130.385 143.476  0.00  0.00     0.210 HD
ENDBRANCH  17  25
BRANCH   6  27
ATOM     27  O           0     137.448 133.516 148.904  0.00  0.00    -0.376 OA
ATOM     28  H           0     136.491 133.662 148.886  0.00  0.00     0.212 HD
ENDBRANCH   6  27
BRANCH  13  29
ATOM     29  O           0     140.928 132.556 144.806  0.00  0.00    -0.341 OA
ATOM     30  H           0     141.064 131.600 144.758  0.00  0.00     0.215 HD
ENDBRANCH  13  29
BRANCH   9  31
ATOM     31  O           0     139.466 131.138 146.757  0.00  0.00    -0.385 OA
ATOM     32  H           0     139.869 131.946 147.101  0.00  0.00     0.210 HD
ENDBRANCH   9  31
TORSDOF 7
ENDMDL
