# created with PyMOL 2.3.4
@<TRIPOS>MOLECULE
ligand_out_0001
32 34 1                 
SMALL
USER_CHARGES
@<TRIPOS>ATOM
1	   N	134.986	132.170	146.689	N.3	1	UNK0	-0.235	
2	   N	136.442	133.903	146.046	N.3	1	UNK0	-0.218	
3	   N	136.160	135.921	143.735	N.3	1	UNK0	-0.216	
4	   N	134.334	136.920	142.611	N.3	1	UNK0	-0.235	
5	   N	134.491	134.586	142.963	N.3	1	UNK0	-0.191	
6	   N	135.165	132.793	144.440	N.3	1	UNK0	-0.183	
7	   N	139.967	130.745	146.760	N.pl3	1	UNK0	-0.337	
8	   C	135.506	132.923	145.761	C.3	1	UNK0	0.672	
9	   C	137.408	134.256	145.011	C.3	1	UNK0	0.151	
10	   C	136.754	134.567	143.679	C.3	1	UNK0	0.180	
11	   C	134.957	135.873	143.075	C.3	1	UNK0	0.670	
12	   C	135.577	133.666	143.340	C.3	1	UNK0	0.217	
13	   C	134.364	131.727	143.812	C.3	1	UNK0	0.150	
14	   C	135.093	131.434	142.479	C.3	1	UNK0	0.093	
15	   C	135.894	132.724	142.167	C.3	1	UNK0	0.209	
16	   C	138.378	133.087	144.821	C.2	1	UNK0	0.208	
17	   C	140.059	131.935	146.131	C.2	1	UNK0	0.362	
18	   C	141.124	129.847	146.802	C.3	1	UNK0	0.154	
19	   C	138.711	130.351	147.402	C.3	1	UNK0	0.154	
20	   O	138.996	132.760	146.093	O.2	1	UNK0	-0.302	
21	   O	141.101	132.261	145.599	O.co2	1	UNK0	-0.238	
22	   O	135.460	133.294	140.931	O.2	1	UNK0	-0.362	
23	   O	137.295	132.441	142.122	O.2	1	UNK0	-0.362	
24	   H	135.253	132.286	147.615	 H	1	UNK0	0.174	
25	   H	134.329	131.495	146.455	 H	1	UNK0	0.174	
26	   H	134.719	137.803	142.724	 H	1	UNK0	0.174	
27	   H	133.485	136.816	142.153	 H	1	UNK0	0.174	
28	   H	136.454	134.343	146.910	 H	1	UNK0	0.178	
29	   H	136.549	136.700	144.160	 H	1	UNK0	0.178	
30	   H	133.600	134.328	142.680	 H	1	UNK0	0.180	
31	   H	134.860	132.654	140.524	 H	1	UNK0	0.213	
32	   H	137.722	133.043	142.745	 H	1	UNK0	0.213	
@<TRIPOS>BOND
1 1 8 1
2 1 24 1
3 1 25 1
4 2 9 1
5 2 28 1
6 3 11 1
7 3 29 1
8 4 26 1
9 4 27 1
10 5 30 1
11 6 13 1
12 7 18 1
13 7 19 1
14 2 8 1
15 6 8 1
16 9 10 1
17 9 16 1
18 3 10 1
19 10 12 1
20 4 11 1
21 5 11 1
22 5 12 1
23 6 12 1
24 12 15 1
25 13 14 1
26 14 15 1
27 15 22 2
28 15 23 2
29 16 20 2
30 7 17 1
31 17 21 2
32 17 20 2
33 22 31 1
34 23 32 1
@<TRIPOS>SUBSTRUCTURE
1	UNK0	1	GROUP	1 ****	UNK
