# created with PyMOL 2.3.4
@<TRIPOS>MOLECULE
ligand_out_0001
80 85 1                 
SMALL
USER_CHARGES
@<TRIPOS>ATOM
1	   N	135.657	132.793	142.946	N.pl3	1	UNK0	-0.288	
2	   N	134.065	134.677	139.472	N.pl3	1	UNK0	-0.359	
3	   N	134.269	135.537	135.851	N.pl3	1	UNK0	-0.335	
4	   N	132.006	135.170	132.090	N.3	1	UNK0	-0.218	
5	   N	131.397	136.641	133.822	N.3	1	UNK0	-0.235	
6	   N	130.912	134.357	133.982	N.3	1	UNK0	-0.183	
7	   N	129.387	132.723	133.055	N.3	1	UNK0	-0.191	
8	   N	130.602	132.597	131.140	N.3	1	UNK0	-0.216	
9	   N	128.363	131.835	131.118	N.3	1	UNK0	-0.235	
10	   N	138.530	134.692	149.681	N.pl3	1	UNK0	-0.360	
11	   N	140.172	132.723	149.406	N.pl3	1	UNK0	-0.355	
12	   N	132.875	128.380	148.543	N.3	1	UNK0	-0.382	
13	   C	136.540	133.611	143.529	C.2	1	UNK0	0.227	
14	   C	136.898	133.067	144.895	C.3	1	UNK0	0.117	
15	   C	136.058	131.777	145.000	C.3	1	UNK0	0.087	
16	   C	135.311	131.732	143.685	C.2	1	UNK0	0.231	
17	   C	135.109	133.040	141.609	C.3	1	UNK0	0.144	
18	   C	133.748	133.728	141.735	C.3	1	UNK0	0.123	
19	   C	133.240	134.090	140.363	C.2	1	UNK0	0.219	
20	   C	133.572	135.028	138.138	C.3	1	UNK0	0.142	
21	   C	134.758	135.295	137.209	C.3	1	UNK0	0.144	
22	   C	134.355	134.565	134.920	C.2	1	UNK0	0.360	
23	   C	133.832	133.692	132.720	C.2	1	UNK0	0.208	
24	   C	132.572	133.843	131.865	C.3	1	UNK0	0.151	
25	   C	131.433	135.438	133.321	C.3	1	UNK0	0.672	
26	   C	130.776	132.995	133.461	C.3	1	UNK0	0.217	
27	   C	130.429	134.292	135.373	C.3	1	UNK0	0.150	
28	   C	131.607	132.728	132.217	C.3	1	UNK0	0.180	
29	   C	131.171	132.071	134.625	C.3	1	UNK0	0.209	
30	   C	129.388	132.354	131.734	C.3	1	UNK0	0.670	
31	   C	130.943	132.930	135.895	C.3	1	UNK0	0.093	
32	   C	135.076	131.868	146.169	C.3	1	UNK0	0.014	
33	   C	134.382	133.232	146.149	C.3	1	UNK0	0.001	
34	   C	133.638	133.446	147.469	C.3	1	UNK0	0.000	
35	   C	134.095	132.398	148.486	C.3	1	UNK0	0.000	
36	   C	134.624	133.101	149.738	C.3	1	UNK0	0.000	
37	   C	136.057	133.576	149.489	C.3	1	UNK0	0.009	
38	   C	136.097	135.106	149.506	C.3	1	UNK0	0.103	
39	   C	137.530	135.571	149.471	C.2	1	UNK0	0.217	
40	   C	139.922	135.144	149.647	C.3	1	UNK0	0.142	
41	   C	140.814	134.011	149.133	C.3	1	UNK0	0.142	
42	   C	139.509	132.078	148.427	C.2	1	UNK0	0.257	
43	   C	138.930	130.744	148.681	C.3	1	UNK0	0.104	
44	   C	139.718	129.719	149.401	C.2	1	UNK0	0.298	
45	   C	138.127	128.059	148.740	C.2	1	UNK0	0.200	
46	   C	137.039	129.119	148.504	C.3	1	UNK0	0.036	
47	   C	137.689	130.459	148.255	C.3	1	UNK0	0.016	
48	   C	136.313	128.759	147.365	C.3	1	UNK0	-0.005	
49	   C	136.254	129.211	149.656	C.3	1	UNK0	-0.005	
50	   C	134.999	128.518	147.341	C.3	1	UNK0	0.026	
51	   C	134.243	128.623	148.530	C.3	1	UNK0	0.029	
52	   C	134.939	128.985	149.705	C.3	1	UNK0	0.026	
53	   C	132.212	127.862	147.344	C.3	1	UNK0	0.118	
54	   C	132.181	126.333	147.397	C.3	1	UNK0	0.026	
55	   C	132.097	128.640	149.756	C.3	1	UNK0	0.118	
56	   C	131.288	129.927	149.578	C.3	1	UNK0	0.026	
57	   O	134.528	130.869	143.352	O.2	1	UNK0	-0.273	
58	   O	136.984	134.629	143.041	O.2	1	UNK0	-0.273	
59	   O	132.090	133.854	140.059	O.2	1	UNK0	-0.274	
60	   O	134.837	133.488	135.209	O.co2	1	UNK0	-0.239	
61	   O	133.905	134.787	133.671	O.2	1	UNK0	-0.302	
62	   O	130.337	130.911	134.653	O.2	1	UNK0	-0.362	
63	   O	132.545	131.695	134.517	O.2	1	UNK0	-0.362	
64	   O	137.784	136.738	149.254	O.2	1	UNK0	-0.274	
65	   O	139.387	132.596	147.333	O.2	1	UNK0	-0.267	
66	   O	139.067	128.571	149.731	O.2	1	UNK0	-0.316	
67	   O	140.886	129.896	149.690	O.co2	1	UNK0	-0.259	
68	   H	134.985	134.866	139.714	 H	1	UNK0	0.162	
69	   H	133.884	136.397	135.619	 H	1	UNK0	0.164	
70	   H	132.030	135.846	131.395	 H	1	UNK0	0.178	
71	   H	131.779	137.383	133.329	 H	1	UNK0	0.174	
72	   H	130.984	136.794	134.686	 H	1	UNK0	0.174	
73	   H	130.769	132.671	130.188	 H	1	UNK0	0.178	
74	   H	128.430	131.595	130.181	 H	1	UNK0	0.174	
75	   H	127.532	131.688	131.598	 H	1	UNK0	0.174	
76	   H	128.605	132.791	133.626	 H	1	UNK0	0.180	
77	   H	129.562	131.110	134.110	 H	1	UNK0	0.213	
78	   H	132.603	130.768	134.786	 H	1	UNK0	0.213	
79	   H	138.327	133.759	149.854	 H	1	UNK0	0.162	
80	   H	140.225	132.334	150.294	 H	1	UNK0	0.162	
@<TRIPOS>BOND
1 1 13 1
2 1 16 1
3 1 17 1
4 2 20 1
5 2 68 1
6 3 22 1
7 3 69 1
8 4 25 1
9 4 70 1
10 5 71 1
11 5 72 1
12 6 26 1
13 6 27 1
14 7 30 1
15 7 76 1
16 8 30 1
17 8 73 1
18 9 74 1
19 9 75 1
20 10 40 1
21 10 79 1
22 11 42 1
23 11 80 1
24 12 53 1
25 12 55 1
26 13 14 1
27 13 58 2
28 14 15 1
29 15 16 1
30 15 32 1
31 16 57 2
32 17 18 1
33 18 19 1
34 2 19 1
35 19 59 2
36 20 21 1
37 3 21 1
38 22 60 2
39 22 61 2
40 23 24 1
41 4 24 1
42 24 28 1
43 5 25 1
44 6 25 1
45 7 26 1
46 26 28 1
47 26 29 1
48 27 31 1
49 8 28 1
50 29 31 1
51 29 62 2
52 29 63 2
53 9 30 1
54 32 33 1
55 33 34 1
56 34 35 1
57 35 36 1
58 36 37 1
59 37 38 1
60 38 39 1
61 10 39 1
62 39 64 2
63 40 41 1
64 11 41 1
65 42 43 1
66 42 65 2
67 43 44 1
68 43 47 1
69 44 66 2
70 44 67 2
71 45 46 1
72 46 47 1
73 46 48 1
74 46 49 1
75 48 50 1
76 49 52 1
77 50 51 1
78 12 51 1
79 51 52 1
80 53 54 1
81 55 56 1
82 23 61 2
83 62 77 1
84 63 78 1
85 45 66 2
@<TRIPOS>SUBSTRUCTURE
1	UNK0	1	GROUP	1 ****	UNK
