MODEL 1
REMARK VINA RESULT:      -7.6      0.000      0.000
REMARK  5 active torsions:
REMARK  status: ('A' for Active; 'I' for Inactive)
REMARK    1  A    between atoms: C_6  and  C_7 
REMARK    2  A    between atoms: C_7  and  O_8 
REMARK    3  A    between atoms: O_8  and  C_9 
REMARK       I    between atoms: C_9  and  N_10 
REMARK    4  A    between atoms: C_23  and  O_24 
REMARK    5  A    between atoms: C_23  and  O_25 
ROOT
ATOM      1  N           0     134.938 136.735 143.107  0.00  0.00    -0.235 N 
ATOM      2  H           0     134.142 137.210 142.821  0.00  0.00     0.174 HD
ATOM      3  H           0     135.749 137.228 143.311  0.00  0.00     0.174 HD
ATOM      4  C           0     134.918 135.437 143.221  0.00  0.00     0.672 C 
ATOM      5  N           0     133.786 134.690 142.946  0.00  0.00    -0.218 N 
ATOM      6  C           0     133.958 133.315 142.487  0.00  0.00     0.151 C 
ATOM      7  C           0     134.878 132.511 143.385  0.00  0.00     0.180 C 
ATOM      8  N           0     134.145 132.121 144.607  0.00  0.00    -0.216 N 
ATOM      9  C           0     135.013 132.238 145.666  0.00  0.00     0.670 C 
ATOM     10  N           0     134.846 131.652 146.818  0.00  0.00    -0.235 N 
ATOM     11  H           0     134.070 131.091 146.968  0.00  0.00     0.174 HD
ATOM     12  H           0     135.499 131.777 147.524  0.00  0.00     0.174 HD
ATOM     13  C           0     136.074 133.290 143.907  0.00  0.00     0.217 C 
ATOM     14  N           0     136.078 133.048 145.360  0.00  0.00    -0.191 N 
ATOM     15  N           0     136.019 134.722 143.615  0.00  0.00    -0.183 N 
ATOM     16  C           0     137.402 135.207 143.779  0.00  0.00     0.150 C 
ATOM     17  C           0     138.278 134.068 143.203  0.00  0.00     0.093 C 
ATOM     18  C           0     137.395 132.797 143.292  0.00  0.00     0.209 C 
ATOM     19  H           0     132.901 135.070 143.057  0.00  0.00     0.178 HD
ATOM     20  H           0     133.220 131.834 144.655  0.00  0.00     0.178 HD
ATOM     21  H           0     136.725 133.399 145.992  0.00  0.00     0.180 HD
ENDROOT
BRANCH   6  22
ATOM     22  C           0     134.544 133.337 141.074  0.00  0.00     0.208 C 
BRANCH  22  23
ATOM     23  O           0     133.531 133.785 140.136  0.00  0.00    -0.302 OA
BRANCH  23  24
ATOM     24  C           0     133.576 135.038 139.644  0.00  0.00     0.358 C 
ATOM     25  N           0     134.043 135.256 138.399  0.00  0.00    -0.346 N 
ATOM     26  H           0     134.348 134.511 137.857  0.00  0.00     0.161 HD
ATOM     27  H           0     134.076 136.159 138.044  0.00  0.00     0.161 HD
ATOM     28  O           0     133.194 135.971 140.322  0.00  0.00    -0.239 OA
ENDBRANCH  23  24
ENDBRANCH  22  23
ENDBRANCH   6  22
BRANCH  18  29
ATOM     29  O           0     138.011 131.822 144.136  0.00  0.00    -0.362 OA
ATOM     30  H           0     138.125 132.235 145.003  0.00  0.00     0.213 HD
ENDBRANCH  18  29
BRANCH  18  31
ATOM     31  O           0     137.166 132.258 141.989  0.00  0.00    -0.362 OA
ATOM     32  H           0     136.924 131.329 142.110  0.00  0.00     0.213 HD
ENDBRANCH  18  31
TORSDOF 5
ENDMDL
MODEL 2
REMARK VINA RESULT:      -7.2      1.947      5.590
REMARK  5 active torsions:
REMARK  status: ('A' for Active; 'I' for Inactive)
REMARK    1  A    between atoms: C_6  and  C_7 
REMARK    2  A    between atoms: C_7  and  O_8 
REMARK    3  A    between atoms: O_8  and  C_9 
REMARK       I    between atoms: C_9  and  N_10 
REMARK    4  A    between atoms: C_23  and  O_24 
REMARK    5  A    between atoms: C_23  and  O_25 
ROOT
ATOM      1  N           0     134.756 131.847 146.559  0.00  0.00    -0.235 N 
ATOM      2  H           0     134.989 131.891 147.499  0.00  0.00     0.174 HD
ATOM      3  H           0     134.079 131.222 146.256  0.00  0.00     0.174 HD
ATOM      4  C           0     135.348 132.632 145.702  0.00  0.00     0.672 C 
ATOM      5  N           0     136.316 133.544 146.085  0.00  0.00    -0.218 N 
ATOM      6  C           0     137.341 133.913 145.113  0.00  0.00     0.151 C 
ATOM      7  C           0     136.756 134.340 143.781  0.00  0.00     0.180 C 
ATOM      8  N           0     136.225 135.714 143.902  0.00  0.00    -0.216 N 
ATOM      9  C           0     135.049 135.768 143.194  0.00  0.00     0.670 C 
ATOM     10  N           0     134.495 136.871 142.775  0.00  0.00    -0.235 N 
ATOM     11  H           0     134.917 137.725 142.960  0.00  0.00     0.174 HD
ATOM     12  H           0     133.663 136.838 142.279  0.00  0.00     0.174 HD
ATOM     13  C           0     135.554 133.521 143.339  0.00  0.00     0.217 C 
ATOM     14  N           0     134.529 134.516 142.981  0.00  0.00    -0.191 N 
ATOM     15  N           0     135.057 132.602 144.363  0.00  0.00    -0.183 N 
ATOM     16  C           0     134.233 131.618 143.638  0.00  0.00     0.150 C 
ATOM     17  C           0     135.002 131.374 142.317  0.00  0.00     0.093 C 
ATOM     18  C           0     135.876 132.640 142.120  0.00  0.00     0.209 C 
ATOM     19  H           0     136.313 133.927 146.976  0.00  0.00     0.178 HD
ATOM     20  H           0     136.632 136.446 144.391  0.00  0.00     0.178 HD
ATOM     21  H           0     133.640 134.319 142.648  0.00  0.00     0.180 HD
ENDROOT
BRANCH   6  22
ATOM     22  C           0     138.262 132.713 144.886  0.00  0.00     0.208 C 
BRANCH  22  23
ATOM     23  O           0     138.799 132.266 146.158  0.00  0.00    -0.302 OA
BRANCH  23  24
ATOM     24  C           0     138.685 130.974 146.521  0.00  0.00     0.358 C 
ATOM     25  N           0     139.785 130.204 146.627  0.00  0.00    -0.346 N 
ATOM     26  H           0     140.661 130.580 146.441  0.00  0.00     0.161 HD
ATOM     27  H           0     139.703 129.274 146.888  0.00  0.00     0.161 HD
ATOM     28  O           0     137.589 130.504 146.754  0.00  0.00    -0.239 OA
ENDBRANCH  23  24
ENDBRANCH  22  23
ENDBRANCH   6  22
BRANCH  18  29
ATOM     29  O           0     135.520 133.307 140.908  0.00  0.00    -0.362 OA
ATOM     30  H           0     136.306 133.300 140.344  0.00  0.00     0.213 HD
ENDBRANCH  18  29
BRANCH  18  31
ATOM     31  O           0     137.262 132.292 142.111  0.00  0.00    -0.362 OA
ATOM     32  H           0     137.534 132.255 141.183  0.00  0.00     0.213 HD
ENDBRANCH  18  31
TORSDOF 5
ENDMDL
MODEL 3
REMARK VINA RESULT:      -6.6      2.903      4.720
REMARK  5 active torsions:
REMARK  status: ('A' for Active; 'I' for Inactive)
REMARK    1  A    between atoms: C_6  and  C_7 
REMARK    2  A    between atoms: C_7  and  O_8 
REMARK    3  A    between atoms: O_8  and  C_9 
REMARK       I    between atoms: C_9  and  N_10 
REMARK    4  A    between atoms: C_23  and  O_24 
REMARK    5  A    between atoms: C_23  and  O_25 
ROOT
ATOM      1  N           0     139.636 130.582 146.011  0.00  0.00    -0.235 N 
ATOM      2  H           0     140.389 130.733 145.419  0.00  0.00     0.174 HD
ATOM      3  H           0     139.666 129.862 146.660  0.00  0.00     0.174 HD
ATOM      4  C           0     138.584 131.349 145.937  0.00  0.00     0.672 C 
ATOM      5  N           0     138.495 132.392 145.031  0.00  0.00    -0.218 N 
ATOM      6  C           0     137.170 132.786 144.559  0.00  0.00     0.151 C 
ATOM      7  C           0     136.194 133.029 145.694  0.00  0.00     0.180 C 
ATOM      8  N           0     136.481 134.341 146.309  0.00  0.00    -0.216 N 
ATOM      9  C           0     136.331 134.204 147.667  0.00  0.00     0.670 C 
ATOM     10  N           0     136.148 135.199 148.489  0.00  0.00    -0.235 N 
ATOM     11  H           0     136.110 136.107 148.149  0.00  0.00     0.174 HD
ATOM     12  H           0     136.049 135.031 149.439  0.00  0.00     0.174 HD
ATOM     13  C           0     136.326 132.047 146.847  0.00  0.00     0.217 C 
ATOM     14  N           0     136.398 132.888 148.054  0.00  0.00    -0.191 N 
ATOM     15  N           0     137.494 131.172 146.748  0.00  0.00    -0.183 N 
ATOM     16  C           0     137.214 130.044 147.655  0.00  0.00     0.150 C 
ATOM     17  C           0     135.701 129.772 147.474  0.00  0.00     0.093 C 
ATOM     18  C           0     135.114 131.104 146.940  0.00  0.00     0.209 C 
ATOM     19  H           0     139.291 132.849 144.719  0.00  0.00     0.178 HD
ATOM     20  H           0     136.729 135.153 145.840  0.00  0.00     0.178 HD
ATOM     21  H           0     136.477 132.567 148.965  0.00  0.00     0.180 HD
ENDROOT
BRANCH   6  22
ATOM     22  C           0     136.617 131.678 143.661  0.00  0.00     0.208 C 
BRANCH  22  23
ATOM     23  O           0     135.319 132.074 143.147  0.00  0.00    -0.302 OA
BRANCH  23  24
ATOM     24  C           0     135.222 133.092 142.271  0.00  0.00     0.358 C 
ATOM     25  N           0     135.910 133.053 141.113  0.00  0.00    -0.346 N 
ATOM     26  H           0     136.476 132.290 140.910  0.00  0.00     0.161 HD
ATOM     27  H           0     135.841 133.787 140.482  0.00  0.00     0.161 HD
ATOM     28  O           0     134.514 134.047 142.525  0.00  0.00    -0.239 OA
ENDBRANCH  23  24
ENDBRANCH  22  23
ENDBRANCH   6  22
BRANCH  18  29
ATOM     29  O           0     134.143 131.620 147.851  0.00  0.00    -0.362 OA
ATOM     30  H           0     133.322 131.134 147.689  0.00  0.00     0.213 HD
ENDBRANCH  18  29
BRANCH  18  31
ATOM     31  O           0     134.535 130.910 145.648  0.00  0.00    -0.362 OA
ATOM     32  H           0     135.254 130.988 145.005  0.00  0.00     0.213 HD
ENDBRANCH  18  31
TORSDOF 5
ENDMDL
MODEL 4
REMARK VINA RESULT:      -6.6      2.946      4.397
REMARK  5 active torsions:
REMARK  status: ('A' for Active; 'I' for Inactive)
REMARK    1  A    between atoms: C_6  and  C_7 
REMARK    2  A    between atoms: C_7  and  O_8 
REMARK    3  A    between atoms: O_8  and  C_9 
REMARK       I    between atoms: C_9  and  N_10 
REMARK    4  A    between atoms: C_23  and  O_24 
REMARK    5  A    between atoms: C_23  and  O_25 
ROOT
ATOM      1  N           0     136.042 134.623 147.223  0.00  0.00    -0.235 N 
ATOM      2  H           0     135.575 135.337 146.763  0.00  0.00     0.174 HD
ATOM      3  H           0     136.521 134.808 148.046  0.00  0.00     0.174 HD
ATOM      4  C           0     136.024 133.413 146.738  0.00  0.00     0.672 C 
ATOM      5  N           0     135.351 133.096 145.571  0.00  0.00    -0.218 N 
ATOM      6  C           0     135.845 131.981 144.768  0.00  0.00     0.151 C 
ATOM      7  C           0     136.045 130.718 145.584  0.00  0.00     0.180 C 
ATOM      8  N           0     134.731 130.091 145.838  0.00  0.00    -0.216 N 
ATOM      9  C           0     134.742 129.615 147.127  0.00  0.00     0.670 C 
ATOM     10  N           0     133.924 128.706 147.579  0.00  0.00    -0.235 N 
ATOM     11  H           0     133.254 128.322 146.992  0.00  0.00     0.174 HD
ATOM     12  H           0     133.986 128.414 148.501  0.00  0.00     0.174 HD
ATOM     13  C           0     136.611 130.960 146.974  0.00  0.00     0.217 C 
ATOM     14  N           0     135.721 130.214 147.880  0.00  0.00    -0.191 N 
ATOM     15  N           0     136.674 132.372 147.349  0.00  0.00    -0.183 N 
ATOM     16  C           0     137.625 132.435 148.474  0.00  0.00     0.150 C 
ATOM     17  C           0     138.728 131.414 148.101  0.00  0.00     0.093 C 
ATOM     18  C           0     138.051 130.435 147.108  0.00  0.00     0.209 C 
ATOM     19  H           0     134.572 133.602 145.293  0.00  0.00     0.178 HD
ATOM     20  H           0     133.995 130.026 145.210  0.00  0.00     0.178 HD
ATOM     21  H           0     135.812 130.154 148.843  0.00  0.00     0.180 HD
ENDROOT
BRANCH   6  22
ATOM     22  C           0     137.182 132.379 144.140  0.00  0.00     0.208 C 
BRANCH  22  23
ATOM     23  O           0     136.952 133.349 143.085  0.00  0.00    -0.302 OA
BRANCH  23  24
ATOM     24  C           0     137.471 134.588 143.184  0.00  0.00     0.358 C 
ATOM     25  N           0     136.686 135.619 143.552  0.00  0.00    -0.346 N 
ATOM     26  H           0     135.747 135.470 143.746  0.00  0.00     0.161 HD
ATOM     27  H           0     137.060 136.512 143.623  0.00  0.00     0.161 HD
ATOM     28  O           0     138.647 134.774 142.941  0.00  0.00    -0.239 OA
ENDBRANCH  23  24
ENDBRANCH  22  23
ENDBRANCH   6  22
BRANCH  18  29
ATOM     29  O           0     138.056 129.108 147.637  0.00  0.00    -0.362 OA
ATOM     30  H           0     138.962 128.779 147.556  0.00  0.00     0.213 HD
ENDBRANCH  18  29
BRANCH  18  31
ATOM     31  O           0     138.713 130.472 145.842  0.00  0.00    -0.362 OA
ATOM     32  H           0     138.702 129.570 145.495  0.00  0.00     0.213 HD
ENDBRANCH  18  31
TORSDOF 5
ENDMDL
MODEL 5
REMARK VINA RESULT:      -6.5      2.370      3.094
REMARK  5 active torsions:
REMARK  status: ('A' for Active; 'I' for Inactive)
REMARK    1  A    between atoms: C_6  and  C_7 
REMARK    2  A    between atoms: C_7  and  O_8 
REMARK    3  A    between atoms: O_8  and  C_9 
REMARK       I    between atoms: C_9  and  N_10 
REMARK    4  A    between atoms: C_23  and  O_24 
REMARK    5  A    between atoms: C_23  and  O_25 
ROOT
ATOM      1  N           0     138.264 134.362 142.053  0.00  0.00    -0.235 N 
ATOM      2  H           0     138.678 135.194 141.776  0.00  0.00     0.174 HD
ATOM      3  H           0     138.523 133.527 141.631  0.00  0.00     0.174 HD
ATOM      4  C           0     137.363 134.363 142.995  0.00  0.00     0.672 C 
ATOM      5  N           0     136.963 135.526 143.631  0.00  0.00    -0.218 N 
ATOM      6  C           0     135.608 135.589 144.170  0.00  0.00     0.151 C 
ATOM      7  C           0     135.274 134.402 145.052  0.00  0.00     0.180 C 
ATOM      8  N           0     135.920 134.578 146.370  0.00  0.00    -0.216 N 
ATOM      9  C           0     136.389 133.351 146.770  0.00  0.00     0.670 C 
ATOM     10  N           0     136.683 133.045 148.002  0.00  0.00    -0.235 N 
ATOM     11  H           0     136.573 133.705 148.704  0.00  0.00     0.174 HD
ATOM     12  H           0     137.010 132.157 148.216  0.00  0.00     0.174 HD
ATOM     13  C           0     135.828 133.079 144.548  0.00  0.00     0.217 C 
ATOM     14  N           0     136.510 132.486 145.711  0.00  0.00    -0.191 N 
ATOM     15  N           0     136.746 133.215 143.417  0.00  0.00    -0.183 N 
ATOM     16  C           0     136.811 131.875 142.804  0.00  0.00     0.150 C 
ATOM     17  C           0     135.362 131.339 142.900  0.00  0.00     0.093 C 
ATOM     18  C           0     134.714 132.137 144.060  0.00  0.00     0.209 C 
ATOM     19  H           0     137.568 136.279 143.716  0.00  0.00     0.178 HD
ATOM     20  H           0     135.998 135.410 146.863  0.00  0.00     0.178 HD
ATOM     21  H           0     136.964 131.629 145.727  0.00  0.00     0.180 HD
ENDROOT
BRANCH   6  22
ATOM     22  C           0     134.616 135.633 143.006  0.00  0.00     0.208 C 
BRANCH  22  23
ATOM     23  O           0     134.047 136.965 142.905  0.00  0.00    -0.302 OA
BRANCH  23  24
ATOM     24  C           0     133.720 137.468 141.699  0.00  0.00     0.358 C 
ATOM     25  N           0     133.747 136.676 140.609  0.00  0.00    -0.346 N 
ATOM     26  H           0     134.001 135.743 140.692  0.00  0.00     0.161 HD
ATOM     27  H           0     133.512 137.038 139.740  0.00  0.00     0.161 HD
ATOM     28  O           0     133.402 138.636 141.594  0.00  0.00    -0.239 OA
ENDBRANCH  23  24
ENDBRANCH  22  23
ENDBRANCH   6  22
BRANCH  18  29
ATOM     29  O           0     134.307 131.253 145.106  0.00  0.00    -0.362 OA
ATOM     30  H           0     134.123 130.398 144.694  0.00  0.00     0.213 HD
ENDBRANCH  18  29
BRANCH  18  31
ATOM     31  O           0     133.599 132.893 143.582  0.00  0.00    -0.362 OA
ATOM     32  H           0     133.497 133.647 144.179  0.00  0.00     0.213 HD
ENDBRANCH  18  31
TORSDOF 5
ENDMDL
MODEL 6
REMARK VINA RESULT:      -6.4      2.786      5.686
REMARK  5 active torsions:
REMARK  status: ('A' for Active; 'I' for Inactive)
REMARK    1  A    between atoms: C_6  and  C_7 
REMARK    2  A    between atoms: C_7  and  O_8 
REMARK    3  A    between atoms: O_8  and  C_9 
REMARK       I    between atoms: C_9  and  N_10 
REMARK    4  A    between atoms: C_23  and  O_24 
REMARK    5  A    between atoms: C_23  and  O_25 
ROOT
ATOM      1  N           0     138.806 130.756 145.506  0.00  0.00    -0.235 N 
ATOM      2  H           0     138.932 130.058 146.167  0.00  0.00     0.174 HD
ATOM      3  H           0     139.559 131.063 144.976  0.00  0.00     0.174 HD
ATOM      4  C           0     137.626 131.280 145.326  0.00  0.00     0.672 C 
ATOM      5  N           0     136.521 130.874 146.053  0.00  0.00    -0.218 N 
ATOM      6  C           0     135.449 131.839 146.280  0.00  0.00     0.151 C 
ATOM      7  C           0     134.984 132.507 145.001  0.00  0.00     0.180 C 
ATOM      8  N           0     134.124 131.570 144.248  0.00  0.00    -0.216 N 
ATOM      9  C           0     134.428 131.706 142.916  0.00  0.00     0.670 C 
ATOM     10  N           0     133.648 131.325 141.943  0.00  0.00    -0.235 N 
ATOM     11  H           0     132.791 130.915 142.142  0.00  0.00     0.174 HD
ATOM     12  H           0     133.925 131.451 141.023  0.00  0.00     0.174 HD
ATOM     13  C           0     136.105 132.835 144.028  0.00  0.00     0.217 C 
ATOM     14  N           0     135.655 132.293 142.735  0.00  0.00    -0.191 N 
ATOM     15  N           0     137.401 132.273 144.409  0.00  0.00    -0.183 N 
ATOM     16  C           0     138.400 133.041 143.643  0.00  0.00     0.150 C 
ATOM     17  C           0     137.859 134.491 143.654  0.00  0.00     0.093 C 
ATOM     18  C           0     136.336 134.351 143.908  0.00  0.00     0.209 C 
ATOM     19  H           0     136.460 129.971 146.402  0.00  0.00     0.178 HD
ATOM     20  H           0     133.463 130.967 144.626  0.00  0.00     0.178 HD
ATOM     21  H           0     136.142 132.346 141.897  0.00  0.00     0.180 HD
ENDROOT
BRANCH   6  22
ATOM     22  C           0     135.951 132.915 147.244  0.00  0.00     0.208 C 
BRANCH  22  23
ATOM     23  O           0     135.205 132.839 148.487  0.00  0.00    -0.302 OA
BRANCH  23  24
ATOM     24  C           0     134.608 131.686 148.845  0.00  0.00     0.358 C 
ATOM     25  N           0     133.263 131.605 148.878  0.00  0.00    -0.346 N 
ATOM     26  H           0     132.725 132.377 148.644  0.00  0.00     0.161 HD
ATOM     27  H           0     132.834 130.774 149.136  0.00  0.00     0.161 HD
ATOM     28  O           0     135.283 130.718 149.138  0.00  0.00    -0.239 OA
ENDBRANCH  23  24
ENDBRANCH  22  23
ENDBRANCH   6  22
BRANCH  18  29
ATOM     29  O           0     135.598 134.887 142.808  0.00  0.00    -0.362 OA
ATOM     30  H           0     134.895 135.436 143.185  0.00  0.00     0.213 HD
ENDBRANCH  18  29
BRANCH  18  31
ATOM     31  O           0     135.971 135.007 145.123  0.00  0.00    -0.362 OA
ATOM     32  H           0     135.064 135.324 145.008  0.00  0.00     0.213 HD
ENDBRANCH  18  31
TORSDOF 5
ENDMDL
MODEL 7
REMARK VINA RESULT:      -6.3      2.778      4.707
REMARK  5 active torsions:
REMARK  status: ('A' for Active; 'I' for Inactive)
REMARK    1  A    between atoms: C_6  and  C_7 
REMARK    2  A    between atoms: C_7  and  O_8 
REMARK    3  A    between atoms: O_8  and  C_9 
REMARK       I    between atoms: C_9  and  N_10 
REMARK    4  A    between atoms: C_23  and  O_24 
REMARK    5  A    between atoms: C_23  and  O_25 
ROOT
ATOM      1  N           0     134.841 129.547 145.918  0.00  0.00    -0.235 N 
ATOM      2  H           0     134.474 129.042 145.176  0.00  0.00     0.174 HD
ATOM      3  H           0     134.627 129.294 146.830  0.00  0.00     0.174 HD
ATOM      4  C           0     135.624 130.564 145.691  0.00  0.00     0.672 C 
ATOM      5  N           0     135.963 130.962 144.409  0.00  0.00    -0.218 N 
ATOM      6  C           0     136.278 132.369 144.182  0.00  0.00     0.151 C 
ATOM      7  C           0     137.311 132.901 145.156  0.00  0.00     0.180 C 
ATOM      8  N           0     138.651 132.427 144.750  0.00  0.00    -0.216 N 
ATOM      9  C           0     139.340 132.104 145.893  0.00  0.00     0.670 C 
ATOM     10  N           0     140.638 132.000 145.962  0.00  0.00    -0.235 N 
ATOM     11  H           0     141.179 132.155 145.172  0.00  0.00     0.174 HD
ATOM     12  H           0     141.062 131.769 146.803  0.00  0.00     0.174 HD
ATOM     13  C           0     137.153 132.380 146.575  0.00  0.00     0.217 C 
ATOM     14  N           0     138.494 131.904 146.955  0.00  0.00    -0.191 N 
ATOM     15  N           0     136.162 131.312 146.706  0.00  0.00    -0.183 N 
ATOM     16  C           0     135.830 131.261 148.141  0.00  0.00     0.150 C 
ATOM     17  C           0     135.816 132.744 148.584  0.00  0.00     0.093 C 
ATOM     18  C           0     136.696 133.484 147.545  0.00  0.00     0.209 C 
ATOM     19  H           0     135.991 130.321 143.681  0.00  0.00     0.178 HD
ATOM     20  H           0     138.984 132.356 143.841  0.00  0.00     0.178 HD
ATOM     21  H           0     138.738 131.518 147.811  0.00  0.00     0.180 HD
ENDROOT
BRANCH   6  22
ATOM     22  C           0     134.996 133.191 144.325  0.00  0.00     0.208 C 
BRANCH  22  23
ATOM     23  O           0     135.312 134.604 144.221  0.00  0.00    -0.302 OA
BRANCH  23  24
ATOM     24  C           0     134.750 135.350 143.251  0.00  0.00     0.358 C 
ATOM     25  N           0     135.022 136.668 143.173  0.00  0.00    -0.346 N 
ATOM     26  H           0     135.621 137.079 143.816  0.00  0.00     0.161 HD
ATOM     27  H           0     134.617 137.206 142.475  0.00  0.00     0.161 HD
ATOM     28  O           0     134.000 134.835 142.446  0.00  0.00    -0.239 OA
ENDBRANCH  23  24
ENDBRANCH  22  23
ENDBRANCH   6  22
BRANCH  18  29
ATOM     29  O           0     137.821 134.088 148.186  0.00  0.00    -0.362 OA
ATOM     30  H           0     138.556 134.045 147.559  0.00  0.00     0.213 HD
ENDBRANCH  18  29
BRANCH  18  31
ATOM     31  O           0     135.927 134.468 146.850  0.00  0.00    -0.362 OA
ATOM     32  H           0     136.437 135.289 146.876  0.00  0.00     0.213 HD
ENDBRANCH  18  31
TORSDOF 5
ENDMDL
MODEL 8
REMARK VINA RESULT:      -6.3      1.635      1.770
REMARK  5 active torsions:
REMARK  status: ('A' for Active; 'I' for Inactive)
REMARK    1  A    between atoms: C_6  and  C_7 
REMARK    2  A    between atoms: C_7  and  O_8 
REMARK    3  A    between atoms: O_8  and  C_9 
REMARK       I    between atoms: C_9  and  N_10 
REMARK    4  A    between atoms: C_23  and  O_24 
REMARK    5  A    between atoms: C_23  and  O_25 
ROOT
ATOM      1  N           0     136.299 135.996 143.472  0.00  0.00    -0.235 N 
ATOM      2  H           0     135.644 136.610 143.106  0.00  0.00     0.174 HD
ATOM      3  H           0     137.235 136.253 143.513  0.00  0.00     0.174 HD
ATOM      4  C           0     135.926 134.827 143.912  0.00  0.00     0.672 C 
ATOM      5  N           0     134.604 134.416 143.880  0.00  0.00    -0.218 N 
ATOM      6  C           0     134.327 132.986 143.778  0.00  0.00     0.151 C 
ATOM      7  C           0     135.076 132.171 144.814  0.00  0.00     0.180 C 
ATOM      8  N           0     134.406 132.314 146.123  0.00  0.00    -0.216 N 
ATOM      9  C           0     135.384 132.403 147.082  0.00  0.00     0.670 C 
ATOM     10  N           0     135.189 132.178 148.351  0.00  0.00    -0.235 N 
ATOM     11  H           0     134.307 131.928 148.669  0.00  0.00     0.174 HD
ATOM     12  H           0     135.926 132.258 148.977  0.00  0.00     0.174 HD
ATOM     13  C           0     136.495 132.650 145.075  0.00  0.00     0.217 C 
ATOM     14  N           0     136.594 132.759 146.540  0.00  0.00    -0.191 N 
ATOM     15  N           0     136.816 133.924 144.432  0.00  0.00    -0.183 N 
ATOM     16  C           0     138.289 133.992 144.413  0.00  0.00     0.150 C 
ATOM     17  C           0     138.735 132.540 144.111  0.00  0.00     0.093 C 
ATOM     18  C           0     137.544 131.653 144.554  0.00  0.00     0.209 C 
ATOM     19  H           0     133.882 135.061 143.925  0.00  0.00     0.178 HD
ATOM     20  H           0     133.448 132.340 146.278  0.00  0.00     0.178 HD
ATOM     21  H           0     137.380 133.034 147.037  0.00  0.00     0.180 HD
ENDROOT
BRANCH   6  22
ATOM     22  C           0     134.731 132.504 142.384  0.00  0.00     0.208 C 
BRANCH  22  23
ATOM     23  O           0     133.541 132.276 141.585  0.00  0.00    -0.302 OA
BRANCH  23  24
ATOM     24  C           0     132.959 133.303 140.936  0.00  0.00     0.358 C 
ATOM     25  N           0     133.708 134.331 140.492  0.00  0.00    -0.346 N 
ATOM     26  H           0     134.667 134.333 140.641  0.00  0.00     0.161 HD
ATOM     27  H           0     133.289 135.071 140.025  0.00  0.00     0.161 HD
ATOM     28  O           0     131.758 133.301 140.750  0.00  0.00    -0.239 OA
ENDBRANCH  23  24
ENDBRANCH  22  23
ENDBRANCH   6  22
BRANCH  18  29
ATOM     29  O           0     137.949 130.759 145.592  0.00  0.00    -0.362 OA
ATOM     30  H           0     137.157 130.278 145.871  0.00  0.00     0.213 HD
ENDBRANCH  18  29
BRANCH  18  31
ATOM     31  O           0     137.025 130.923 143.440  0.00  0.00    -0.362 OA
ATOM     32  H           0     137.581 130.138 143.337  0.00  0.00     0.213 HD
ENDBRANCH  18  31
TORSDOF 5
ENDMDL
MODEL 9
REMARK VINA RESULT:      -6.2      8.092     10.535
REMARK  5 active torsions:
REMARK  status: ('A' for Active; 'I' for Inactive)
REMARK    1  A    between atoms: C_6  and  C_7 
REMARK    2  A    between atoms: C_7  and  O_8 
REMARK    3  A    between atoms: O_8  and  C_9 
REMARK       I    between atoms: C_9  and  N_10 
REMARK    4  A    between atoms: C_23  and  O_24 
REMARK    5  A    between atoms: C_23  and  O_25 
ROOT
ATOM      1  N           0     128.803 134.219 132.053  0.00  0.00    -0.235 N 
ATOM      2  H           0     128.067 133.825 131.559  0.00  0.00     0.174 HD
ATOM      3  H           0     128.986 135.169 131.975  0.00  0.00     0.174 HD
ATOM      4  C           0     129.546 133.474 132.822  0.00  0.00     0.672 C 
ATOM      5  N           0     129.324 132.116 132.969  0.00  0.00    -0.218 N 
ATOM      6  C           0     130.462 131.259 133.288  0.00  0.00     0.151 C 
ATOM      7  C           0     131.258 131.764 134.476  0.00  0.00     0.180 C 
ATOM      8  N           0     130.531 131.439 135.722  0.00  0.00    -0.216 N 
ATOM      9  C           0     130.663 132.512 136.570  0.00  0.00     0.670 C 
ATOM     10  N           0     130.475 132.454 137.858  0.00  0.00    -0.235 N 
ATOM     11  H           0     130.226 131.614 138.274  0.00  0.00     0.174 HD
ATOM     12  H           0     130.586 133.250 138.401  0.00  0.00     0.174 HD
ATOM     13  C           0     131.411 133.275 134.525  0.00  0.00     0.217 C 
ATOM     14  N           0     131.018 133.652 135.893  0.00  0.00    -0.191 N 
ATOM     15  N           0     130.601 133.983 133.534  0.00  0.00    -0.183 N 
ATOM     16  C           0     131.199 135.327 133.428  0.00  0.00     0.150 C 
ATOM     17  C           0     132.724 135.076 133.528  0.00  0.00     0.093 C 
ATOM     18  C           0     132.861 133.716 134.259  0.00  0.00     0.209 C 
ATOM     19  H           0     128.435 131.743 132.864  0.00  0.00     0.178 HD
ATOM     20  H           0     130.048 130.619 135.907  0.00  0.00     0.178 HD
ATOM     21  H           0     131.012 134.552 136.255  0.00  0.00     0.180 HD
ENDROOT
BRANCH   6  22
ATOM     22  C           0     131.385 131.190 132.070  0.00  0.00     0.208 C 
BRANCH  22  23
ATOM     23  O           0     132.368 130.140 132.265  0.00  0.00    -0.302 OA
BRANCH  23  24
ATOM     24  C           0     131.988 128.848 132.234  0.00  0.00     0.358 C 
ATOM     25  N           0     132.033 128.106 133.358  0.00  0.00    -0.346 N 
ATOM     26  H           0     132.339 128.502 134.190  0.00  0.00     0.161 HD
ATOM     27  H           0     131.760 127.175 133.336  0.00  0.00     0.161 HD
ATOM     28  O           0     131.605 128.353 131.193  0.00  0.00    -0.239 OA
ENDBRANCH  23  24
ENDBRANCH  22  23
ENDBRANCH   6  22
BRANCH  18  29
ATOM     29  O           0     133.571 133.880 135.487  0.00  0.00    -0.362 OA
ATOM     30  H           0     132.913 134.092 136.164  0.00  0.00     0.213 HD
ENDBRANCH  18  29
BRANCH  18  31
ATOM     31  O           0     133.523 132.765 133.422  0.00  0.00    -0.362 OA
ATOM     32  H           0     133.102 132.818 132.552  0.00  0.00     0.213 HD
ENDBRANCH  18  31
TORSDOF 5
ENDMDL
