MODEL 1
REMARK VINA RESULT:      -7.0      0.000      0.000
REMARK  5 active torsions:
REMARK  status: ('A' for Active; 'I' for Inactive)
REMARK    1  A    between atoms: C_6  and  C_7 
REMARK    2  A    between atoms: C_7  and  O_8 
REMARK    3  A    between atoms: O_8  and  C_9 
REMARK       I    between atoms: C_9  and  N_10 
REMARK    4  A    between atoms: C_24  and  O_25 
REMARK    5  A    between atoms: C_24  and  O_26 
ROOT
ATOM      1  N           0     135.632 134.719 146.644  0.00  0.00    -0.235 N 
ATOM      2  H           0     135.914 134.645 147.570  0.00  0.00     0.174 HD
ATOM      3  H           0     134.878 135.283 146.411  0.00  0.00     0.174 HD
ATOM      4  C           0     136.270 134.065 145.715  0.00  0.00     0.672 C 
ATOM      5  N           0     137.355 133.254 145.998  0.00  0.00    -0.218 N 
ATOM      6  C           0     137.614 132.113 145.124  0.00  0.00     0.151 C 
ATOM      7  C           0     137.656 132.500 143.659  0.00  0.00     0.180 C 
ATOM      8  N           0     138.955 133.141 143.362  0.00  0.00    -0.216 N 
ATOM      9  C           0     138.716 134.189 142.507  0.00  0.00     0.670 C 
ATOM     10  N           0     139.627 134.746 141.760  0.00  0.00    -0.235 N 
ATOM     11  H           0     140.541 134.424 141.787  0.00  0.00     0.174 HD
ATOM     12  H           0     139.390 135.484 141.177  0.00  0.00     0.174 HD
ATOM     13  C           0     136.633 133.552 143.264  0.00  0.00     0.217 C 
ATOM     14  N           0     137.399 134.575 142.537  0.00  0.00    -0.191 N 
ATOM     15  N           0     135.906 134.134 144.392  0.00  0.00    -0.179 N 
ATOM     16  C           0     134.690 134.746 143.836  0.00  0.00     0.106 C 
ATOM     17  C           0     134.930 136.232 143.563  0.00  0.00     0.033 C 
ATOM     18  C           0     134.385 134.009 142.515  0.00  0.00     0.098 C 
ATOM     19  C           0     135.531 132.971 142.354  0.00  0.00     0.210 C 
ATOM     20  H           0     137.928 133.439 146.758  0.00  0.00     0.178 HD
ATOM     21  H           0     139.820 132.870 143.709  0.00  0.00     0.178 HD
ATOM     22  H           0     137.036 135.384 142.143  0.00  0.00     0.180 HD
ENDROOT
BRANCH   6  23
ATOM     23  C           0     136.511 131.073 145.328  0.00  0.00     0.208 C 
BRANCH  23  24
ATOM     24  O           0     136.466 130.682 146.726  0.00  0.00    -0.302 OA
BRANCH  24  25
ATOM     25  C           0     135.331 130.837 147.433  0.00  0.00     0.358 C 
ATOM     26  N           0     134.485 129.799 147.585  0.00  0.00    -0.346 N 
ATOM     27  H           0     134.693 128.941 147.184  0.00  0.00     0.161 HD
ATOM     28  H           0     133.666 129.912 148.094  0.00  0.00     0.161 HD
ATOM     29  O           0     135.070 131.913 147.934  0.00  0.00    -0.239 OA
ENDBRANCH  24  25
ENDBRANCH  23  24
ENDBRANCH   6  23
BRANCH  19  30
ATOM     30  O           0     135.967 132.904 140.995  0.00  0.00    -0.362 OA
ATOM     31  H           0     135.261 133.284 140.456  0.00  0.00     0.213 HD
ENDBRANCH  19  30
BRANCH  19  32
ATOM     32  O           0     135.120 131.685 142.821  0.00  0.00    -0.362 OA
ATOM     33  H           0     135.280 131.061 142.100  0.00  0.00     0.213 HD
ENDBRANCH  19  32
TORSDOF 5
ENDMDL
MODEL 2
REMARK VINA RESULT:      -6.7      8.846     11.021
REMARK  5 active torsions:
REMARK  status: ('A' for Active; 'I' for Inactive)
REMARK    1  A    between atoms: C_6  and  C_7 
REMARK    2  A    between atoms: C_7  and  O_8 
REMARK    3  A    between atoms: O_8  and  C_9 
REMARK       I    between atoms: C_9  and  N_10 
REMARK    4  A    between atoms: C_24  and  O_25 
REMARK    5  A    between atoms: C_24  and  O_26 
ROOT
ATOM      1  N           0     131.698 132.165 134.959  0.00  0.00    -0.235 N 
ATOM      2  H           0     131.137 131.798 135.661  0.00  0.00     0.174 HD
ATOM      3  H           0     132.127 131.572 134.322  0.00  0.00     0.174 HD
ATOM      4  C           0     131.870 133.453 134.868  0.00  0.00     0.672 C 
ATOM      5  N           0     131.274 134.339 135.748  0.00  0.00    -0.218 N 
ATOM      6  C           0     131.947 135.606 136.018  0.00  0.00     0.151 C 
ATOM      7  C           0     132.324 136.347 134.750  0.00  0.00     0.180 C 
ATOM      8  N           0     131.119 137.000 134.193  0.00  0.00    -0.216 N 
ATOM      9  C           0     131.167 136.863 132.827  0.00  0.00     0.670 C 
ATOM     10  N           0     130.489 137.602 131.994  0.00  0.00    -0.235 N 
ATOM     11  H           0     129.905 138.300 132.328  0.00  0.00     0.174 HD
ATOM     12  H           0     130.569 137.452 131.039  0.00  0.00     0.174 HD
ATOM     13  C           0     132.805 135.448 133.624  0.00  0.00     0.217 C 
ATOM     14  N           0     132.018 135.854 132.449  0.00  0.00    -0.191 N 
ATOM     15  N           0     132.657 134.018 133.894  0.00  0.00    -0.179 N 
ATOM     16  C           0     133.558 133.321 132.965  0.00  0.00     0.106 C 
ATOM     17  C           0     132.791 132.896 131.711  0.00  0.00     0.033 C 
ATOM     18  C           0     134.670 134.322 132.588  0.00  0.00     0.098 C 
ATOM     19  C           0     134.309 135.633 133.341  0.00  0.00     0.210 C 
ATOM     20  H           0     130.429 134.124 136.174  0.00  0.00     0.178 HD
ATOM     21  H           0     130.422 137.444 134.701  0.00  0.00     0.178 HD
ATOM     22  H           0     132.089 135.476 131.559  0.00  0.00     0.180 HD
ENDROOT
BRANCH   6  23
ATOM     23  C           0     133.218 135.328 136.823  0.00  0.00     0.208 C 
BRANCH  23  24
ATOM     24  O           0     132.911 134.426 137.918  0.00  0.00    -0.302 OA
BRANCH  24  25
ATOM     25  C           0     132.986 134.860 139.190  0.00  0.00     0.358 C 
ATOM     26  N           0     133.555 136.050 139.464  0.00  0.00    -0.346 N 
ATOM     27  H           0     133.911 136.594 138.744  0.00  0.00     0.161 HD
ATOM     28  H           0     133.608 136.363 140.381  0.00  0.00     0.161 HD
ATOM     29  O           0     132.540 134.178 140.092  0.00  0.00    -0.239 OA
ENDBRANCH  24  25
ENDBRANCH  23  24
ENDBRANCH   6  23
BRANCH  19  30
ATOM     30  O           0     134.541 136.774 132.512  0.00  0.00    -0.362 OA
ATOM     31  H           0     133.990 136.665 131.726  0.00  0.00     0.213 HD
ENDBRANCH  19  30
BRANCH  19  32
ATOM     32  O           0     135.042 135.735 134.563  0.00  0.00    -0.362 OA
ATOM     33  H           0     135.824 135.174 134.468  0.00  0.00     0.213 HD
ENDBRANCH  19  32
TORSDOF 5
ENDMDL
MODEL 3
REMARK VINA RESULT:      -6.6      3.368      4.707
REMARK  5 active torsions:
REMARK  status: ('A' for Active; 'I' for Inactive)
REMARK    1  A    between atoms: C_6  and  C_7 
REMARK    2  A    between atoms: C_7  and  O_8 
REMARK    3  A    between atoms: O_8  and  C_9 
REMARK       I    between atoms: C_9  and  N_10 
REMARK    4  A    between atoms: C_24  and  O_25 
REMARK    5  A    between atoms: C_24  and  O_26 
ROOT
ATOM      1  N           0     134.176 131.980 149.313  0.00  0.00    -0.235 N 
ATOM      2  H           0     133.740 131.654 150.116  0.00  0.00     0.174 HD
ATOM      3  H           0     134.023 132.890 149.014  0.00  0.00     0.174 HD
ATOM      4  C           0     134.971 131.198 148.640  0.00  0.00     0.672 C 
ATOM      5  N           0     135.226 129.895 149.031  0.00  0.00    -0.218 N 
ATOM      6  C           0     135.556 128.914 148.001  0.00  0.00     0.151 C 
ATOM      7  C           0     136.672 129.383 147.087  0.00  0.00     0.180 C 
ATOM      8  N           0     137.967 129.226 147.783  0.00  0.00    -0.216 N 
ATOM      9  C           0     138.737 130.323 147.481  0.00  0.00     0.670 C 
ATOM     10  N           0     140.033 130.366 147.610  0.00  0.00    -0.235 N 
ATOM     11  H           0     140.514 129.590 147.939  0.00  0.00     0.174 HD
ATOM     12  H           0     140.517 131.174 147.378  0.00  0.00     0.174 HD
ATOM     13  C           0     136.618 130.863 146.748  0.00  0.00     0.217 C 
ATOM     14  N           0     137.971 131.368 147.026  0.00  0.00    -0.191 N 
ATOM     15  N           0     135.608 131.613 147.496  0.00  0.00    -0.179 N 
ATOM     16  C           0     135.370 132.856 146.748  0.00  0.00     0.106 C 
ATOM     17  C           0     136.242 133.980 147.311  0.00  0.00     0.033 C 
ATOM     18  C           0     135.757 132.573 145.280  0.00  0.00     0.098 C 
ATOM     19  C           0     136.258 131.102 145.268  0.00  0.00     0.210 C 
ATOM     20  H           0     135.186 129.640 149.966  0.00  0.00     0.178 HD
ATOM     21  H           0     138.227 128.483 148.351  0.00  0.00     0.178 HD
ATOM     22  H           0     138.273 132.282 146.905  0.00  0.00     0.180 HD
ENDROOT
BRANCH   6  23
ATOM     23  C           0     134.309 128.644 147.157  0.00  0.00     0.208 C 
BRANCH  23  24
ATOM     24  O           0     133.277 128.056 147.992  0.00  0.00    -0.302 OA
BRANCH  24  25
ATOM     25  C           0     132.314 127.296 147.438  0.00  0.00     0.358 C 
ATOM     26  N           0     132.604 126.055 146.998  0.00  0.00    -0.346 N 
ATOM     27  H           0     133.508 125.711 147.080  0.00  0.00     0.161 HD
ATOM     28  H           0     131.910 125.508 146.599  0.00  0.00     0.161 HD
ATOM     29  O           0     131.183 127.728 147.335  0.00  0.00    -0.239 OA
ENDBRANCH  24  25
ENDBRANCH  23  24
ENDBRANCH   6  23
BRANCH  19  30
ATOM     30  O           0     137.407 130.965 144.429  0.00  0.00    -0.362 OA
ATOM     31  H           0     137.269 130.172 143.895  0.00  0.00     0.213 HD
ENDBRANCH  19  30
BRANCH  19  32
ATOM     32  O           0     135.217 130.215 144.854  0.00  0.00    -0.362 OA
ATOM     33  H           0     135.593 129.643 144.171  0.00  0.00     0.213 HD
ENDBRANCH  19  32
TORSDOF 5
ENDMDL
MODEL 4
REMARK VINA RESULT:      -6.6      2.080      5.337
REMARK  5 active torsions:
REMARK  status: ('A' for Active; 'I' for Inactive)
REMARK    1  A    between atoms: C_6  and  C_7 
REMARK    2  A    between atoms: C_7  and  O_8 
REMARK    3  A    between atoms: O_8  and  C_9 
REMARK       I    between atoms: C_9  and  N_10 
REMARK    4  A    between atoms: C_24  and  O_25 
REMARK    5  A    between atoms: C_24  and  O_26 
ROOT
ATOM      1  N           0     139.546 130.560 146.144  0.00  0.00    -0.235 N 
ATOM      2  H           0     140.282 130.684 145.524  0.00  0.00     0.174 HD
ATOM      3  H           0     139.586 129.854 146.809  0.00  0.00     0.174 HD
ATOM      4  C           0     138.507 131.344 146.088  0.00  0.00     0.672 C 
ATOM      5  N           0     138.407 132.368 145.162  0.00  0.00    -0.218 N 
ATOM      6  C           0     137.077 132.771 144.715  0.00  0.00     0.151 C 
ATOM      7  C           0     136.136 133.055 145.869  0.00  0.00     0.180 C 
ATOM      8  N           0     136.450 134.385 146.435  0.00  0.00    -0.216 N 
ATOM      9  C           0     136.346 134.290 147.802  0.00  0.00     0.670 C 
ATOM     10  N           0     136.197 135.312 148.597  0.00  0.00    -0.235 N 
ATOM     11  H           0     136.155 136.209 148.232  0.00  0.00     0.174 HD
ATOM     12  H           0     136.129 135.175 149.555  0.00  0.00     0.174 HD
ATOM     13  C           0     136.295 132.111 147.049  0.00  0.00     0.217 C 
ATOM     14  N           0     136.416 132.986 148.225  0.00  0.00    -0.191 N 
ATOM     15  N           0     137.439 131.205 146.941  0.00  0.00    -0.179 N 
ATOM     16  C           0     137.187 130.098 147.875  0.00  0.00     0.106 C 
ATOM     17  C           0     137.869 130.378 149.215  0.00  0.00     0.033 C 
ATOM     18  C           0     135.657 130.019 148.067  0.00  0.00     0.098 C 
ATOM     19  C           0     135.079 131.177 147.208  0.00  0.00     0.210 C 
ATOM     20  H           0     139.201 132.806 144.819  0.00  0.00     0.178 HD
ATOM     21  H           0     136.687 135.180 145.932  0.00  0.00     0.178 HD
ATOM     22  H           0     136.523 132.692 149.143  0.00  0.00     0.180 HD
ENDROOT
BRANCH   6  23
ATOM     23  C           0     136.483 131.650 143.859  0.00  0.00     0.208 C 
BRANCH  23  24
ATOM     24  O           0     135.208 132.081 143.313  0.00  0.00    -0.302 OA
BRANCH  24  25
ATOM     25  C           0     135.164 133.084 142.415  0.00  0.00     0.358 C 
ATOM     26  N           0     135.864 132.991 141.267  0.00  0.00    -0.346 N 
ATOM     27  H           0     136.401 132.203 141.088  0.00  0.00     0.161 HD
ATOM     28  H           0     135.832 133.714 140.621  0.00  0.00     0.161 HD
ATOM     29  O           0     134.493 134.071 142.640  0.00  0.00    -0.239 OA
ENDBRANCH  24  25
ENDBRANCH  23  24
ENDBRANCH   6  23
BRANCH  19  30
ATOM     30  O           0     134.011 131.833 147.894  0.00  0.00    -0.362 OA
ATOM     31  H           0     134.409 132.545 148.412  0.00  0.00     0.213 HD
ENDBRANCH  19  30
BRANCH  19  32
ATOM     32  O           0     134.645 130.695 145.934  0.00  0.00    -0.362 OA
ATOM     33  H           0     134.944 131.337 145.276  0.00  0.00     0.213 HD
ENDBRANCH  19  32
TORSDOF 5
ENDMDL
MODEL 5
REMARK VINA RESULT:      -6.5      9.011     11.193
REMARK  5 active torsions:
REMARK  status: ('A' for Active; 'I' for Inactive)
REMARK    1  A    between atoms: C_6  and  C_7 
REMARK    2  A    between atoms: C_7  and  O_8 
REMARK    3  A    between atoms: O_8  and  C_9 
REMARK       I    between atoms: C_9  and  N_10 
REMARK    4  A    between atoms: C_24  and  O_25 
REMARK    5  A    between atoms: C_24  and  O_26 
ROOT
ATOM      1  N           0     133.883 132.380 132.751  0.00  0.00    -0.235 N 
ATOM      2  H           0     133.744 131.565 132.244  0.00  0.00     0.174 HD
ATOM      3  H           0     134.779 132.734 132.866  0.00  0.00     0.174 HD
ATOM      4  C           0     132.865 133.004 133.273  0.00  0.00     0.672 C 
ATOM      5  N           0     131.568 132.544 133.131  0.00  0.00    -0.218 N 
ATOM      6  C           0     130.603 132.852 134.183  0.00  0.00     0.151 C 
ATOM      7  C           0     130.569 134.329 134.526  0.00  0.00     0.180 C 
ATOM      8  N           0     129.805 135.051 133.486  0.00  0.00    -0.216 N 
ATOM      9  C           0     130.452 136.239 133.245  0.00  0.00     0.670 C 
ATOM     10  N           0     129.897 137.272 132.675  0.00  0.00    -0.235 N 
ATOM     11  H           0     128.971 137.230 132.391  0.00  0.00     0.174 HD
ATOM     12  H           0     130.411 138.082 132.535  0.00  0.00     0.174 HD
ATOM     13  C           0     131.930 135.003 134.512  0.00  0.00     0.217 C 
ATOM     14  N           0     131.753 136.203 133.681  0.00  0.00    -0.191 N 
ATOM     15  N           0     133.012 134.159 134.003  0.00  0.00    -0.179 N 
ATOM     16  C           0     134.268 134.756 134.478  0.00  0.00     0.106 C 
ATOM     17  C           0     134.844 135.686 133.408  0.00  0.00     0.033 C 
ATOM     18  C           0     133.925 135.563 135.749  0.00  0.00     0.098 C 
ATOM     19  C           0     132.389 135.405 135.928  0.00  0.00     0.210 C 
ATOM     20  H           0     131.306 132.029 132.352  0.00  0.00     0.178 HD
ATOM     21  H           0     128.994 134.742 133.052  0.00  0.00     0.178 HD
ATOM     22  H           0     132.438 136.860 133.476  0.00  0.00     0.180 HD
ENDROOT
BRANCH   6  23
ATOM     23  C           0     130.974 132.063 135.440  0.00  0.00     0.208 C 
BRANCH  23  24
ATOM     24  O           0     130.156 132.511 136.553  0.00  0.00    -0.302 OA
BRANCH  24  25
ATOM     25  C           0     130.285 131.931 137.761  0.00  0.00     0.358 C 
ATOM     26  N           0     130.889 132.595 138.766  0.00  0.00    -0.346 N 
ATOM     27  H           0     131.233 133.490 138.619  0.00  0.00     0.161 HD
ATOM     28  H           0     130.982 132.176 139.636  0.00  0.00     0.161 HD
ATOM     29  O           0     129.856 130.809 137.945  0.00  0.00    -0.239 OA
ENDBRANCH  24  25
ENDBRANCH  23  24
ENDBRANCH   6  23
BRANCH  19  30
ATOM     30  O           0     131.796 136.640 136.332  0.00  0.00    -0.362 OA
ATOM     31  H           0     132.489 137.153 136.768  0.00  0.00     0.213 HD
ENDBRANCH  19  30
BRANCH  19  32
ATOM     32  O           0     132.092 134.368 136.866  0.00  0.00    -0.362 OA
ATOM     33  H           0     132.826 134.342 137.495  0.00  0.00     0.213 HD
ENDBRANCH  19  32
TORSDOF 5
ENDMDL
MODEL 6
REMARK VINA RESULT:      -6.4      2.021      5.792
REMARK  5 active torsions:
REMARK  status: ('A' for Active; 'I' for Inactive)
REMARK    1  A    between atoms: C_6  and  C_7 
REMARK    2  A    between atoms: C_7  and  O_8 
REMARK    3  A    between atoms: O_8  and  C_9 
REMARK       I    between atoms: C_9  and  N_10 
REMARK    4  A    between atoms: C_24  and  O_25 
REMARK    5  A    between atoms: C_24  and  O_26 
ROOT
ATOM      1  N           0     136.084 134.558 146.899  0.00  0.00    -0.235 N 
ATOM      2  H           0     135.554 135.201 146.404  0.00  0.00     0.174 HD
ATOM      3  H           0     136.670 134.858 147.612  0.00  0.00     0.174 HD
ATOM      4  C           0     136.006 133.289 146.612  0.00  0.00     0.672 C 
ATOM      5  N           0     135.180 132.811 145.610  0.00  0.00    -0.218 N 
ATOM      6  C           0     135.568 131.585 144.917  0.00  0.00     0.151 C 
ATOM      7  C           0     135.889 130.454 145.874  0.00  0.00     0.180 C 
ATOM      8  N           0     134.627 129.876 146.384  0.00  0.00    -0.216 N 
ATOM      9  C           0     134.807 129.597 147.718  0.00  0.00     0.670 C 
ATOM     10  N           0     134.064 128.771 148.399  0.00  0.00    -0.235 N 
ATOM     11  H           0     133.330 128.308 147.966  0.00  0.00     0.174 HD
ATOM     12  H           0     134.246 128.618 149.339  0.00  0.00     0.174 HD
ATOM     13  C           0     136.624 130.890 147.130  0.00  0.00     0.217 C 
ATOM     14  N           0     135.866 130.296 148.242  0.00  0.00    -0.191 N 
ATOM     15  N           0     136.740 132.341 147.283  0.00  0.00    -0.179 N 
ATOM     16  C           0     137.830 132.576 148.240  0.00  0.00     0.106 C 
ATOM     17  C           0     137.262 132.736 149.652  0.00  0.00     0.033 C 
ATOM     18  C           0     138.750 131.337 148.180  0.00  0.00     0.098 C 
ATOM     19  C           0     138.080 130.383 147.152  0.00  0.00     0.210 C 
ATOM     20  H           0     134.364 133.279 145.373  0.00  0.00     0.178 HD
ATOM     21  H           0     133.818 129.723 145.871  0.00  0.00     0.178 HD
ATOM     22  H           0     136.080 130.379 149.185  0.00  0.00     0.180 HD
ENDROOT
BRANCH   6  23
ATOM     23  C           0     136.802 131.871 144.060  0.00  0.00     0.208 C 
BRANCH  23  24
ATOM     24  O           0     136.463 132.836 143.029  0.00  0.00    -0.302 OA
BRANCH  24  25
ATOM     25  C           0     137.044 134.050 143.025  0.00  0.00     0.358 C 
ATOM     26  N           0     138.085 134.297 142.206  0.00  0.00    -0.346 N 
ATOM     27  H           0     138.417 133.598 141.619  0.00  0.00     0.161 HD
ATOM     28  H           0     138.504 135.172 142.204  0.00  0.00     0.161 HD
ATOM     29  O           0     136.630 134.925 143.761  0.00  0.00    -0.239 OA
ENDBRANCH  24  25
ENDBRANCH  23  24
ENDBRANCH   6  23
BRANCH  19  30
ATOM     30  O           0     138.147 129.028 147.600  0.00  0.00    -0.362 OA
ATOM     31  H           0     139.015 128.692 147.340  0.00  0.00     0.213 HD
ENDBRANCH  19  30
BRANCH  19  32
ATOM     32  O           0     138.681 130.524 145.863  0.00  0.00    -0.362 OA
ATOM     33  H           0     139.373 131.194 145.949  0.00  0.00     0.213 HD
ENDBRANCH  19  32
TORSDOF 5
ENDMDL
MODEL 7
REMARK VINA RESULT:      -6.3     10.386     12.059
REMARK  5 active torsions:
REMARK  status: ('A' for Active; 'I' for Inactive)
REMARK    1  A    between atoms: C_6  and  C_7 
REMARK    2  A    between atoms: C_7  and  O_8 
REMARK    3  A    between atoms: O_8  and  C_9 
REMARK       I    between atoms: C_9  and  N_10 
REMARK    4  A    between atoms: C_24  and  O_25 
REMARK    5  A    between atoms: C_24  and  O_26 
ROOT
ATOM      1  N           0     129.115 132.811 132.271  0.00  0.00    -0.235 N 
ATOM      2  H           0     128.511 132.085 132.490  0.00  0.00     0.174 HD
ATOM      3  H           0     129.004 133.301 131.441  0.00  0.00     0.174 HD
ATOM      4  C           0     130.073 133.134 133.094  0.00  0.00     0.672 C 
ATOM      5  N           0     130.268 132.470 134.292  0.00  0.00    -0.218 N 
ATOM      6  C           0     131.621 132.405 134.838  0.00  0.00     0.151 C 
ATOM      7  C           0     132.283 133.767 134.914  0.00  0.00     0.180 C 
ATOM      8  N           0     131.748 134.502 136.081  0.00  0.00    -0.216 N 
ATOM      9  C           0     131.584 135.814 135.706  0.00  0.00     0.670 C 
ATOM     10  N           0     131.481 136.807 136.544  0.00  0.00    -0.235 N 
ATOM     11  H           0     131.518 136.642 137.499  0.00  0.00     0.174 HD
ATOM     12  H           0     131.367 137.711 136.212  0.00  0.00     0.174 HD
ATOM     13  C           0     131.972 134.677 133.737  0.00  0.00     0.217 C 
ATOM     14  N           0     131.543 135.948 134.340  0.00  0.00    -0.191 N 
ATOM     15  N           0     130.955 134.152 132.825  0.00  0.00    -0.179 N 
ATOM     16  C           0     131.110 134.882 131.559  0.00  0.00     0.106 C 
ATOM     17  C           0     130.151 136.074 131.522  0.00  0.00     0.033 C 
ATOM     18  C           0     132.571 135.379 131.508  0.00  0.00     0.098 C 
ATOM     19  C           0     133.208 134.907 132.844  0.00  0.00     0.210 C 
ATOM     20  H           0     129.524 132.058 134.758  0.00  0.00     0.178 HD
ATOM     21  H           0     131.549 134.126 136.953  0.00  0.00     0.178 HD
ATOM     22  H           0     131.279 136.747 133.856  0.00  0.00     0.180 HD
ENDROOT
BRANCH   6  23
ATOM     23  C           0     132.469 131.494 133.948  0.00  0.00     0.208 C 
BRANCH  23  24
ATOM     24  O           0     133.796 131.356 134.521  0.00  0.00    -0.302 OA
BRANCH  24  25
ATOM     25  C           0     134.707 130.562 133.927  0.00  0.00     0.358 C 
ATOM     26  N           0     135.745 131.108 133.263  0.00  0.00    -0.346 N 
ATOM     27  H           0     135.834 132.073 133.211  0.00  0.00     0.161 HD
ATOM     28  H           0     136.401 130.536 132.835  0.00  0.00     0.161 HD
ATOM     29  O           0     134.594 129.354 133.991  0.00  0.00    -0.239 OA
ENDBRANCH  24  25
ENDBRANCH  23  24
ENDBRANCH   6  23
BRANCH  19  30
ATOM     30  O           0     134.056 135.921 133.388  0.00  0.00    -0.362 OA
ATOM     31  H           0     134.504 135.530 134.149  0.00  0.00     0.213 HD
ENDBRANCH  19  30
BRANCH  19  32
ATOM     32  O           0     133.929 133.687 132.659  0.00  0.00    -0.362 OA
ATOM     33  H           0     134.562 133.623 133.387  0.00  0.00     0.213 HD
ENDBRANCH  19  32
TORSDOF 5
ENDMDL
MODEL 8
REMARK VINA RESULT:      -6.3     11.066     13.113
REMARK  5 active torsions:
REMARK  status: ('A' for Active; 'I' for Inactive)
REMARK    1  A    between atoms: C_6  and  C_7 
REMARK    2  A    between atoms: C_7  and  O_8 
REMARK    3  A    between atoms: O_8  and  C_9 
REMARK       I    between atoms: C_9  and  N_10 
REMARK    4  A    between atoms: C_24  and  O_25 
REMARK    5  A    between atoms: C_24  and  O_26 
ROOT
ATOM      1  N           0     128.825 132.560 130.875  0.00  0.00    -0.235 N 
ATOM      2  H           0     127.919 132.303 130.644  0.00  0.00     0.174 HD
ATOM      3  H           0     129.294 133.218 130.338  0.00  0.00     0.174 HD
ATOM      4  C           0     129.410 132.028 131.911  0.00  0.00     0.672 C 
ATOM      5  N           0     128.780 131.091 132.711  0.00  0.00    -0.218 N 
ATOM      6  C           0     129.604 130.103 133.402  0.00  0.00     0.151 C 
ATOM      7  C           0     130.740 130.736 134.183  0.00  0.00     0.180 C 
ATOM      8  N           0     130.207 131.307 135.439  0.00  0.00    -0.216 N 
ATOM      9  C           0     130.844 132.505 135.653  0.00  0.00     0.670 C 
ATOM     10  N           0     130.903 133.106 136.808  0.00  0.00    -0.235 N 
ATOM     11  H           0     130.479 132.708 137.585  0.00  0.00     0.174 HD
ATOM     12  H           0     131.370 133.952 136.891  0.00  0.00     0.174 HD
ATOM     13  C           0     131.386 131.923 133.488  0.00  0.00     0.217 C 
ATOM     14  N           0     131.411 132.990 134.500  0.00  0.00    -0.191 N 
ATOM     15  N           0     130.693 132.358 132.275  0.00  0.00    -0.179 N 
ATOM     16  C           0     131.657 133.158 131.506  0.00  0.00     0.106 C 
ATOM     17  C           0     131.478 134.643 131.825  0.00  0.00     0.033 C 
ATOM     18  C           0     133.065 132.692 131.936  0.00  0.00     0.098 C 
ATOM     19  C           0     132.820 131.606 133.020  0.00  0.00     0.210 C 
ATOM     20  H           0     127.815 131.092 132.810  0.00  0.00     0.178 HD
ATOM     21  H           0     129.530 130.908 136.008  0.00  0.00     0.178 HD
ATOM     22  H           0     131.769 133.883 134.377  0.00  0.00     0.180 HD
ENDROOT
BRANCH   6  23
ATOM     23  C           0     130.192 129.140 132.369  0.00  0.00     0.208 C 
BRANCH  23  24
ATOM     24  O           0     129.993 127.773 132.813  0.00  0.00    -0.302 OA
BRANCH  24  25
ATOM     25  C           0     131.054 126.978 133.045  0.00  0.00     0.358 C 
ATOM     26  N           0     130.902 125.639 133.069  0.00  0.00    -0.346 N 
ATOM     27  H           0     130.026 125.248 132.920  0.00  0.00     0.161 HD
ATOM     28  H           0     131.667 125.067 133.237  0.00  0.00     0.161 HD
ATOM     29  O           0     132.150 127.468 133.233  0.00  0.00    -0.239 OA
ENDBRANCH  24  25
ENDBRANCH  23  24
ENDBRANCH   6  23
BRANCH  19  30
ATOM     30  O           0     133.755 131.741 134.092  0.00  0.00    -0.362 OA
ATOM     31  H           0     134.618 131.479 133.745  0.00  0.00     0.213 HD
ENDBRANCH  19  30
BRANCH  19  32
ATOM     32  O           0     132.885 130.297 132.450  0.00  0.00    -0.362 OA
ATOM     33  H           0     131.989 130.070 132.168  0.00  0.00     0.213 HD
ENDBRANCH  19  32
TORSDOF 5
ENDMDL
MODEL 9
REMARK VINA RESULT:      -6.2      2.435      3.806
REMARK  5 active torsions:
REMARK  status: ('A' for Active; 'I' for Inactive)
REMARK    1  A    between atoms: C_6  and  C_7 
REMARK    2  A    between atoms: C_7  and  O_8 
REMARK    3  A    between atoms: O_8  and  C_9 
REMARK       I    between atoms: C_9  and  N_10 
REMARK    4  A    between atoms: C_24  and  O_25 
REMARK    5  A    between atoms: C_24  and  O_26 
ROOT
ATOM      1  N           0     139.028 130.704 145.684  0.00  0.00    -0.235 N 
ATOM      2  H           0     139.253 129.870 146.125  0.00  0.00     0.174 HD
ATOM      3  H           0     139.729 131.252 145.296  0.00  0.00     0.174 HD
ATOM      4  C           0     137.785 131.086 145.606  0.00  0.00     0.672 C 
ATOM      5  N           0     136.751 130.336 146.138  0.00  0.00    -0.218 N 
ATOM      6  C           0     135.550 131.033 146.591  0.00  0.00     0.151 C 
ATOM      7  C           0     134.991 131.972 145.540  0.00  0.00     0.180 C 
ATOM      8  N           0     134.261 131.184 144.524  0.00  0.00    -0.216 N 
ATOM      9  C           0     134.541 131.731 143.295  0.00  0.00     0.670 C 
ATOM     10  N           0     133.816 131.542 142.228  0.00  0.00    -0.235 N 
ATOM     11  H           0     133.024 130.984 142.271  0.00  0.00     0.174 HD
ATOM     12  H           0     134.070 131.959 141.390  0.00  0.00     0.174 HD
ATOM     13  C           0     136.050 132.710 144.738  0.00  0.00     0.217 C 
ATOM     14  N           0     135.676 132.503 143.331  0.00  0.00    -0.191 N 
ATOM     15  N           0     137.418 132.260 144.996  0.00  0.00    -0.179 N 
ATOM     16  C           0     138.307 133.336 144.531  0.00  0.00     0.106 C 
ATOM     17  C           0     138.764 133.054 143.098  0.00  0.00     0.033 C 
ATOM     18  C           0     137.485 134.642 144.576  0.00  0.00     0.098 C 
ATOM     19  C           0     136.072 134.217 145.062  0.00  0.00     0.210 C 
ATOM     20  H           0     136.821 129.371 146.206  0.00  0.00     0.178 HD
ATOM     21  H           0     133.689 130.419 144.693  0.00  0.00     0.178 HD
ATOM     22  H           0     136.148 132.853 142.559  0.00  0.00     0.180 HD
ENDROOT
BRANCH   6  23
ATOM     23  C           0     135.892 131.842 147.844  0.00  0.00     0.208 C 
BRANCH  23  24
ATOM     24  O           0     134.671 132.359 148.435  0.00  0.00    -0.302 OA
BRANCH  24  25
ATOM     25  C           0     133.871 131.544 149.149  0.00  0.00     0.358 C 
ATOM     26  N           0     132.532 131.667 149.058  0.00  0.00    -0.346 N 
ATOM     27  H           0     132.145 132.343 148.480  0.00  0.00     0.161 HD
ATOM     28  H           0     131.956 131.080 149.573  0.00  0.00     0.161 HD
ATOM     29  O           0     134.356 130.698 149.873  0.00  0.00    -0.239 OA
ENDBRANCH  24  25
ENDBRANCH  23  24
ENDBRANCH   6  23
BRANCH  19  30
ATOM     30  O           0     135.056 134.915 144.339  0.00  0.00    -0.362 OA
ATOM     31  H           0     134.565 135.440 144.985  0.00  0.00     0.213 HD
ENDBRANCH  19  30
BRANCH  19  32
ATOM     32  O           0     135.934 134.431 146.468  0.00  0.00    -0.362 OA
ATOM     33  H           0     135.532 135.304 146.580  0.00  0.00     0.213 HD
ENDBRANCH  19  32
TORSDOF 5
ENDMDL
