# created with PyMOL 2.3.4
@<TRIPOS>MOLECULE
ligand_out_0001
33 35 1                 
SMALL
USER_CHARGES
@<TRIPOS>ATOM
1	   N	135.632	134.719	146.644	N.3	1	UNK0	-0.235	
2	   N	137.355	133.254	145.998	N.3	1	UNK0	-0.218	
3	   N	138.955	133.141	143.362	N.3	1	UNK0	-0.216	
4	   N	139.627	134.746	141.760	N.3	1	UNK0	-0.235	
5	   N	137.399	134.575	142.537	N.3	1	UNK0	-0.191	
6	   N	135.906	134.134	144.392	N.3	1	UNK0	-0.179	
7	   N	134.485	129.799	147.585	N.pl3	1	UNK0	-0.346	
8	   C	136.270	134.065	145.715	C.3	1	UNK0	0.672	
9	   C	137.614	132.113	145.124	C.3	1	UNK0	0.151	
10	   C	137.656	132.500	143.659	C.3	1	UNK0	0.180	
11	   C	138.716	134.189	142.507	C.3	1	UNK0	0.670	
12	   C	136.633	133.552	143.264	C.3	1	UNK0	0.217	
13	   C	134.690	134.746	143.836	C.3	1	UNK0	0.106	
14	   C	134.930	136.232	143.563	C.3	1	UNK0	0.033	
15	   C	134.385	134.009	142.515	C.3	1	UNK0	0.098	
16	   C	135.531	132.971	142.354	C.3	1	UNK0	0.210	
17	   C	136.511	131.073	145.328	C.2	1	UNK0	0.208	
18	   C	135.331	130.837	147.433	C.2	1	UNK0	0.358	
19	   O	136.466	130.682	146.726	O.2	1	UNK0	-0.302	
20	   O	135.070	131.913	147.934	O.co2	1	UNK0	-0.239	
21	   O	135.967	132.904	140.995	O.2	1	UNK0	-0.362	
22	   O	135.120	131.685	142.821	O.2	1	UNK0	-0.362	
23	   H	135.914	134.645	147.570	 H	1	UNK0	0.174	
24	   H	134.878	135.283	146.411	 H	1	UNK0	0.174	
25	   H	140.541	134.424	141.787	 H	1	UNK0	0.174	
26	   H	139.390	135.484	141.177	 H	1	UNK0	0.174	
27	   H	137.928	133.439	146.758	 H	1	UNK0	0.178	
28	   H	139.820	132.870	143.709	 H	1	UNK0	0.178	
29	   H	137.036	135.384	142.143	 H	1	UNK0	0.180	
30	   H	134.693	128.941	147.184	 H	1	UNK0	0.161	
31	   H	133.666	129.912	148.094	 H	1	UNK0	0.161	
32	   H	135.261	133.284	140.456	 H	1	UNK0	0.213	
33	   H	135.280	131.061	142.100	 H	1	UNK0	0.213	
@<TRIPOS>BOND
1 1 8 1
2 1 23 1
3 1 24 1
4 2 9 1
5 2 27 1
6 3 11 1
7 3 28 1
8 4 25 1
9 4 26 1
10 5 29 1
11 6 13 1
12 7 30 1
13 7 31 1
14 2 8 1
15 6 8 1
16 9 10 1
17 9 17 1
18 3 10 1
19 10 12 1
20 4 11 1
21 5 11 1
22 5 12 1
23 6 12 1
24 12 16 1
25 13 14 1
26 13 15 1
27 15 16 1
28 16 21 2
29 16 22 2
30 17 19 2
31 7 18 1
32 18 20 2
33 18 19 2
34 21 32 1
35 22 33 1
@<TRIPOS>SUBSTRUCTURE
1	UNK0	1	GROUP	1 ****	UNK
