# created with PyMOL 2.3.4
@<TRIPOS>MOLECULE
ligand_out_0001
32 34 1                 
SMALL
USER_CHARGES
@<TRIPOS>ATOM
1	   N	135.048	136.780	143.151	N.3	1	UNK0	-0.235	
2	   N	133.793	134.795	143.012	N.3	1	UNK0	-0.218	
3	   N	134.088	132.191	144.633	N.3	1	UNK0	-0.216	
4	   N	134.845	131.663	146.811	N.3	1	UNK0	-0.235	
5	   N	136.089	133.015	145.322	N.3	1	UNK0	-0.191	
6	   N	136.048	134.711	143.598	N.3	1	UNK0	-0.183	
7	   N	133.509	136.064	139.848	N.pl3	1	UNK0	-0.346	
8	   C	134.970	135.483	143.252	C.3	1	UNK0	0.672	
9	   C	133.882	133.419	142.533	C.3	1	UNK0	0.151	
10	   C	134.793	132.560	143.387	C.3	1	UNK0	0.180	
11	   C	134.998	132.254	145.659	C.3	1	UNK0	0.670	
12	   C	136.044	133.274	143.874	C.3	1	UNK0	0.217	
13	   C	137.458	135.127	143.715	C.3	1	UNK0	0.150	
14	   C	138.256	133.953	143.096	C.3	1	UNK0	0.093	
15	   C	137.316	132.726	143.205	C.3	1	UNK0	0.209	
16	   C	134.415	133.429	141.099	C.2	1	UNK0	0.208	
17	   C	133.463	134.812	139.351	C.2	1	UNK0	0.358	
18	   O	133.339	133.761	140.184	O.2	1	UNK0	-0.302	
19	   O	133.534	134.631	138.151	O.co2	1	UNK0	-0.239	
20	   O	137.914	131.712	144.015	O.2	1	UNK0	-0.362	
21	   O	137.013	132.214	141.905	O.2	1	UNK0	-0.362	
22	   H	134.266	137.295	142.900	 H	1	UNK0	0.174	
23	   H	135.889	137.230	143.330	 H	1	UNK0	0.174	
24	   H	134.048	131.138	146.984	 H	1	UNK0	0.174	
25	   H	135.529	131.748	147.494	 H	1	UNK0	0.174	
26	   H	132.932	135.216	143.160	 H	1	UNK0	0.178	
27	   H	133.151	131.949	144.712	 H	1	UNK0	0.178	
28	   H	136.775	133.326	145.933	 H	1	UNK0	0.180	
29	   H	133.452	136.208	140.806	 H	1	UNK0	0.161	
30	   H	133.597	136.821	139.248	 H	1	UNK0	0.161	
31	   H	137.693	131.921	144.933	 H	1	UNK0	0.213	
32	   H	136.050	132.239	141.813	 H	1	UNK0	0.213	
@<TRIPOS>BOND
1 1 8 1
2 1 22 1
3 1 23 1
4 2 9 1
5 2 26 1
6 3 11 1
7 3 27 1
8 4 24 1
9 4 25 1
10 5 28 1
11 6 13 1
12 7 29 1
13 7 30 1
14 2 8 1
15 6 8 1
16 9 10 1
17 9 16 1
18 3 10 1
19 10 12 1
20 4 11 1
21 5 11 1
22 5 12 1
23 6 12 1
24 12 15 1
25 13 14 1
26 14 15 1
27 15 20 2
28 15 21 2
29 16 18 2
30 7 17 1
31 17 19 2
32 17 18 2
33 20 31 1
34 21 32 1
@<TRIPOS>SUBSTRUCTURE
1	UNK0	1	GROUP	1 ****	UNK
