MODEL 1
REMARK VINA RESULT:      -7.9      0.000      0.000
REMARK  5 active torsions:
REMARK  status: ('A' for Active; 'I' for Inactive)
REMARK    1  A    between atoms: C_6  and  C_7 
REMARK    2  A    between atoms: C_7  and  O_8 
REMARK    3  A    between atoms: O_8  and  C_9 
REMARK       I    between atoms: C_9  and  N_10 
REMARK    4  A    between atoms: C_23  and  O_24 
REMARK    5  A    between atoms: C_23  and  O_25 
ROOT
ATOM      1  N           0     135.048 136.780 143.151  0.00  0.00    -0.235 N 
ATOM      2  H           0     134.266 137.295 142.900  0.00  0.00     0.174 HD
ATOM      3  H           0     135.889 137.230 143.330  0.00  0.00     0.174 HD
ATOM      4  C           0     134.970 135.483 143.252  0.00  0.00     0.672 C 
ATOM      5  N           0     133.793 134.795 143.012  0.00  0.00    -0.218 N 
ATOM      6  C           0     133.882 133.419 142.533  0.00  0.00     0.151 C 
ATOM      7  C           0     134.793 132.560 143.387  0.00  0.00     0.180 C 
ATOM      8  N           0     134.088 132.191 144.633  0.00  0.00    -0.216 N 
ATOM      9  C           0     134.998 132.254 145.659  0.00  0.00     0.670 C 
ATOM     10  N           0     134.845 131.663 146.811  0.00  0.00    -0.235 N 
ATOM     11  H           0     134.048 131.138 146.984  0.00  0.00     0.174 HD
ATOM     12  H           0     135.529 131.748 147.494  0.00  0.00     0.174 HD
ATOM     13  C           0     136.044 133.274 143.874  0.00  0.00     0.217 C 
ATOM     14  N           0     136.089 133.015 145.322  0.00  0.00    -0.191 N 
ATOM     15  N           0     136.048 134.711 143.598  0.00  0.00    -0.183 N 
ATOM     16  C           0     137.458 135.127 143.715  0.00  0.00     0.150 C 
ATOM     17  C           0     138.256 133.953 143.096  0.00  0.00     0.093 C 
ATOM     18  C           0     137.316 132.726 143.205  0.00  0.00     0.209 C 
ATOM     19  H           0     132.932 135.216 143.160  0.00  0.00     0.178 HD
ATOM     20  H           0     133.151 131.949 144.712  0.00  0.00     0.178 HD
ATOM     21  H           0     136.775 133.326 145.933  0.00  0.00     0.180 HD
ENDROOT
BRANCH   6  22
ATOM     22  C           0     134.415 133.429 141.099  0.00  0.00     0.208 C 
BRANCH  22  23
ATOM     23  O           0     133.339 133.761 140.184  0.00  0.00    -0.302 OA
BRANCH  23  24
ATOM     24  C           0     133.463 134.812 139.351  0.00  0.00     0.358 C 
ATOM     25  N           0     133.509 136.064 139.848  0.00  0.00    -0.346 N 
ATOM     26  H           0     133.452 136.208 140.806  0.00  0.00     0.161 HD
ATOM     27  H           0     133.597 136.821 139.248  0.00  0.00     0.161 HD
ATOM     28  O           0     133.534 134.631 138.151  0.00  0.00    -0.239 OA
ENDBRANCH  23  24
ENDBRANCH  22  23
ENDBRANCH   6  22
BRANCH  18  29
ATOM     29  O           0     137.914 131.712 144.015  0.00  0.00    -0.362 OA
ATOM     30  H           0     137.693 131.921 144.933  0.00  0.00     0.213 HD
ENDBRANCH  18  29
BRANCH  18  31
ATOM     31  O           0     137.013 132.214 141.905  0.00  0.00    -0.362 OA
ATOM     32  H           0     136.050 132.239 141.813  0.00  0.00     0.213 HD
ENDBRANCH  18  31
TORSDOF 5
ENDMDL
MODEL 2
REMARK VINA RESULT:      -7.5      1.916      5.622
REMARK  5 active torsions:
REMARK  status: ('A' for Active; 'I' for Inactive)
REMARK    1  A    between atoms: C_6  and  C_7 
REMARK    2  A    between atoms: C_7  and  O_8 
REMARK    3  A    between atoms: O_8  and  C_9 
REMARK       I    between atoms: C_9  and  N_10 
REMARK    4  A    between atoms: C_23  and  O_24 
REMARK    5  A    between atoms: C_23  and  O_25 
ROOT
ATOM      1  N           0     134.755 131.886 146.529  0.00  0.00    -0.235 N 
ATOM      2  H           0     134.987 131.935 147.469  0.00  0.00     0.174 HD
ATOM      3  H           0     134.086 131.250 146.228  0.00  0.00     0.174 HD
ATOM      4  C           0     135.337 132.676 145.671  0.00  0.00     0.672 C 
ATOM      5  N           0     136.293 133.602 146.052  0.00  0.00    -0.218 N 
ATOM      6  C           0     137.313 133.982 145.079  0.00  0.00     0.151 C 
ATOM      7  C           0     136.723 134.398 143.746  0.00  0.00     0.180 C 
ATOM      8  N           0     136.173 135.765 143.862  0.00  0.00    -0.216 N 
ATOM      9  C           0     134.997 135.801 143.154  0.00  0.00     0.670 C 
ATOM     10  N           0     134.429 136.895 142.732  0.00  0.00    -0.235 N 
ATOM     11  H           0     134.839 137.756 142.915  0.00  0.00     0.174 HD
ATOM     12  H           0     133.597 136.850 142.236  0.00  0.00     0.174 HD
ATOM     13  C           0     135.532 133.562 143.306  0.00  0.00     0.217 C 
ATOM     14  N           0     134.494 134.541 142.944  0.00  0.00    -0.191 N 
ATOM     15  N           0     135.046 132.639 144.332  0.00  0.00    -0.183 N 
ATOM     16  C           0     134.236 131.642 143.609  0.00  0.00     0.150 C 
ATOM     17  C           0     135.009 131.405 142.289  0.00  0.00     0.093 C 
ATOM     18  C           0     135.866 132.681 142.089  0.00  0.00     0.209 C 
ATOM     19  H           0     136.284 133.988 146.941  0.00  0.00     0.178 HD
ATOM     20  H           0     136.571 136.504 144.350  0.00  0.00     0.178 HD
ATOM     21  H           0     133.607 134.332 142.611  0.00  0.00     0.180 HD
ENDROOT
BRANCH   6  22
ATOM     22  C           0     138.249 132.794 144.855  0.00  0.00     0.208 C 
BRANCH  22  23
ATOM     23  O           0     138.764 132.334 146.132  0.00  0.00    -0.302 OA
BRANCH  23  24
ATOM     24  C           0     138.669 131.034 146.468  0.00  0.00     0.358 C 
ATOM     25  N           0     139.784 130.286 146.587  0.00  0.00    -0.346 N 
ATOM     26  H           0     140.655 130.684 146.430  0.00  0.00     0.161 HD
ATOM     27  H           0     139.716 129.348 146.829  0.00  0.00     0.161 HD
ATOM     28  O           0     137.578 130.535 146.665  0.00  0.00    -0.239 OA
ENDBRANCH  23  24
ENDBRANCH  22  23
ENDBRANCH   6  22
BRANCH  18  29
ATOM     29  O           0     135.501 133.340 140.875  0.00  0.00    -0.362 OA
ATOM     30  H           0     134.891 134.051 141.116  0.00  0.00     0.213 HD
ENDBRANCH  18  29
BRANCH  18  31
ATOM     31  O           0     137.257 132.352 142.081  0.00  0.00    -0.362 OA
ATOM     32  H           0     137.390 131.687 142.772  0.00  0.00     0.213 HD
ENDBRANCH  18  31
TORSDOF 5
ENDMDL
MODEL 3
REMARK VINA RESULT:      -6.8      2.380      5.128
REMARK  5 active torsions:
REMARK  status: ('A' for Active; 'I' for Inactive)
REMARK    1  A    between atoms: C_6  and  C_7 
REMARK    2  A    between atoms: C_7  and  O_8 
REMARK    3  A    between atoms: O_8  and  C_9 
REMARK       I    between atoms: C_9  and  N_10 
REMARK    4  A    between atoms: C_23  and  O_24 
REMARK    5  A    between atoms: C_23  and  O_25 
ROOT
ATOM      1  N           0     136.022 134.632 146.682  0.00  0.00    -0.235 N 
ATOM      2  H           0     136.469 135.459 146.922  0.00  0.00     0.174 HD
ATOM      3  H           0     135.574 134.107 147.364  0.00  0.00     0.174 HD
ATOM      4  C           0     136.019 134.228 145.442  0.00  0.00     0.672 C 
ATOM      5  N           0     136.639 134.943 144.432  0.00  0.00    -0.218 N 
ATOM      6  C           0     137.143 134.210 143.275  0.00  0.00     0.151 C 
ATOM      7  C           0     136.100 133.293 142.666  0.00  0.00     0.180 C 
ATOM      8  N           0     135.147 134.098 141.873  0.00  0.00    -0.216 N 
ATOM      9  C           0     133.892 133.581 142.084  0.00  0.00     0.670 C 
ATOM     10  N           0     132.874 133.787 141.297  0.00  0.00    -0.235 N 
ATOM     11  H           0     132.977 134.335 140.504  0.00  0.00     0.174 HD
ATOM     12  H           0     132.013 133.390 141.505  0.00  0.00     0.174 HD
ATOM     13  C           0     135.222 132.586 143.686  0.00  0.00     0.217 C 
ATOM     14  N           0     133.843 132.821 143.226  0.00  0.00    -0.191 N 
ATOM     15  N           0     135.406 133.065 145.056  0.00  0.00    -0.183 N 
ATOM     16  C           0     134.847 132.007 145.917  0.00  0.00     0.150 C 
ATOM     17  C           0     135.259 130.688 145.220  0.00  0.00     0.093 C 
ATOM     18  C           0     135.505 131.075 143.739  0.00  0.00     0.209 C 
ATOM     19  H           0     136.735 135.906 144.492  0.00  0.00     0.178 HD
ATOM     20  H           0     135.367 134.854 141.306  0.00  0.00     0.178 HD
ATOM     21  H           0     133.038 132.492 143.654  0.00  0.00     0.180 HD
ENDROOT
BRANCH   6  22
ATOM     22  C           0     138.346 133.371 143.707  0.00  0.00     0.208 C 
BRANCH  22  23
ATOM     23  O           0     138.241 133.068 145.123  0.00  0.00    -0.302 OA
BRANCH  23  24
ATOM     24  C           0     139.039 132.132 145.672  0.00  0.00     0.358 C 
ATOM     25  N           0     138.621 130.853 145.752  0.00  0.00    -0.346 N 
ATOM     26  H           0     137.746 130.606 145.415  0.00  0.00     0.161 HD
ATOM     27  H           0     139.196 130.179 146.149  0.00  0.00     0.161 HD
ATOM     28  O           0     140.136 132.441 146.095  0.00  0.00    -0.239 OA
ENDBRANCH  23  24
ENDBRANCH  22  23
ENDBRANCH   6  22
BRANCH  18  29
ATOM     29  O           0     134.608 130.364 142.884  0.00  0.00    -0.362 OA
ATOM     30  H           0     134.195 129.675 143.423  0.00  0.00     0.213 HD
ENDBRANCH  18  29
BRANCH  18  31
ATOM     31  O           0     136.861 130.810 143.373  0.00  0.00    -0.362 OA
ATOM     32  H           0     137.020 129.873 143.553  0.00  0.00     0.213 HD
ENDBRANCH  18  31
TORSDOF 5
ENDMDL
MODEL 4
REMARK VINA RESULT:      -6.8      2.905      4.785
REMARK  5 active torsions:
REMARK  status: ('A' for Active; 'I' for Inactive)
REMARK    1  A    between atoms: C_6  and  C_7 
REMARK    2  A    between atoms: C_7  and  O_8 
REMARK    3  A    between atoms: O_8  and  C_9 
REMARK       I    between atoms: C_9  and  N_10 
REMARK    4  A    between atoms: C_23  and  O_24 
REMARK    5  A    between atoms: C_23  and  O_25 
ROOT
ATOM      1  N           0     139.679 130.594 146.021  0.00  0.00    -0.235 N 
ATOM      2  H           0     140.436 130.750 145.437  0.00  0.00     0.174 HD
ATOM      3  H           0     139.707 129.873 146.670  0.00  0.00     0.174 HD
ATOM      4  C           0     138.623 131.355 145.940  0.00  0.00     0.672 C 
ATOM      5  N           0     138.536 132.399 145.035  0.00  0.00    -0.218 N 
ATOM      6  C           0     137.214 132.786 144.552  0.00  0.00     0.151 C 
ATOM      7  C           0     136.226 133.021 145.678  0.00  0.00     0.180 C 
ATOM      8  N           0     136.500 134.334 146.299  0.00  0.00    -0.216 N 
ATOM      9  C           0     136.338 134.193 147.655  0.00  0.00     0.670 C 
ATOM     10  N           0     136.142 135.185 148.477  0.00  0.00    -0.235 N 
ATOM     11  H           0     136.102 136.094 148.139  0.00  0.00     0.174 HD
ATOM     12  H           0     136.035 135.015 149.426  0.00  0.00     0.174 HD
ATOM     13  C           0     136.353 132.038 146.830  0.00  0.00     0.217 C 
ATOM     14  N           0     136.409 132.877 148.039  0.00  0.00    -0.191 N 
ATOM     15  N           0     137.527 131.170 146.740  0.00  0.00    -0.183 N 
ATOM     16  C           0     137.245 130.038 147.642  0.00  0.00     0.150 C 
ATOM     17  C           0     135.736 129.758 147.447  0.00  0.00     0.093 C 
ATOM     18  C           0     135.146 131.087 146.910  0.00  0.00     0.209 C 
ATOM     19  H           0     139.332 132.861 144.731  0.00  0.00     0.178 HD
ATOM     20  H           0     136.748 135.149 145.833  0.00  0.00     0.178 HD
ATOM     21  H           0     136.481 132.554 148.951  0.00  0.00     0.180 HD
ENDROOT
BRANCH   6  22
ATOM     22  C           0     136.675 131.678 143.646  0.00  0.00     0.208 C 
BRANCH  22  23
ATOM     23  O           0     135.363 132.050 143.152  0.00  0.00    -0.302 OA
BRANCH  23  24
ATOM     24  C           0     135.234 133.077 142.289  0.00  0.00     0.358 C 
ATOM     25  N           0     135.904 133.063 141.120  0.00  0.00    -0.346 N 
ATOM     26  H           0     136.479 132.313 140.899  0.00  0.00     0.161 HD
ATOM     27  H           0     135.812 133.802 140.499  0.00  0.00     0.161 HD
ATOM     28  O           0     134.513 134.015 142.566  0.00  0.00    -0.239 OA
ENDBRANCH  23  24
ENDBRANCH  22  23
ENDBRANCH   6  22
BRANCH  18  29
ATOM     29  O           0     134.163 131.596 147.814  0.00  0.00    -0.362 OA
ATOM     30  H           0     133.393 131.839 147.281  0.00  0.00     0.213 HD
ENDBRANCH  18  29
BRANCH  18  31
ATOM     31  O           0     134.579 130.893 145.613  0.00  0.00    -0.362 OA
ATOM     32  H           0     135.237 131.199 144.972  0.00  0.00     0.213 HD
ENDBRANCH  18  31
TORSDOF 5
ENDMDL
MODEL 5
REMARK VINA RESULT:      -6.7      2.993      4.456
REMARK  5 active torsions:
REMARK  status: ('A' for Active; 'I' for Inactive)
REMARK    1  A    between atoms: C_6  and  C_7 
REMARK    2  A    between atoms: C_7  and  O_8 
REMARK    3  A    between atoms: O_8  and  C_9 
REMARK       I    between atoms: C_9  and  N_10 
REMARK    4  A    between atoms: C_23  and  O_24 
REMARK    5  A    between atoms: C_23  and  O_25 
ROOT
ATOM      1  N           0     136.073 134.648 147.261  0.00  0.00    -0.235 N 
ATOM      2  H           0     135.611 135.367 146.804  0.00  0.00     0.174 HD
ATOM      3  H           0     136.552 134.825 148.086  0.00  0.00     0.174 HD
ATOM      4  C           0     136.048 133.441 146.769  0.00  0.00     0.672 C 
ATOM      5  N           0     135.376 133.136 145.598  0.00  0.00    -0.218 N 
ATOM      6  C           0     135.864 132.023 144.789  0.00  0.00     0.151 C 
ATOM      7  C           0     136.055 130.754 145.597  0.00  0.00     0.180 C 
ATOM      8  N           0     134.736 130.133 145.845  0.00  0.00    -0.216 N 
ATOM      9  C           0     134.741 129.648 147.131  0.00  0.00     0.670 C 
ATOM     10  N           0     133.917 128.742 147.575  0.00  0.00    -0.235 N 
ATOM     11  H           0     133.246 128.366 146.985  0.00  0.00     0.174 HD
ATOM     12  H           0     133.976 128.444 148.496  0.00  0.00     0.174 HD
ATOM     13  C           0     136.619 130.983 146.990  0.00  0.00     0.217 C 
ATOM     14  N           0     135.723 130.237 147.889  0.00  0.00    -0.191 N 
ATOM     15  N           0     136.691 132.392 147.374  0.00  0.00    -0.183 N 
ATOM     16  C           0     137.640 132.442 148.501  0.00  0.00     0.150 C 
ATOM     17  C           0     138.737 131.416 148.124  0.00  0.00     0.093 C 
ATOM     18  C           0     138.055 130.448 147.124  0.00  0.00     0.209 C 
ATOM     19  H           0     134.600 133.648 145.322  0.00  0.00     0.178 HD
ATOM     20  H           0     134.001 130.077 145.215  0.00  0.00     0.178 HD
ATOM     21  H           0     135.812 130.170 148.853  0.00  0.00     0.180 HD
ENDROOT
BRANCH   6  22
ATOM     22  C           0     137.204 132.416 144.166  0.00  0.00     0.208 C 
BRANCH  22  23
ATOM     23  O           0     136.980 133.375 143.100  0.00  0.00    -0.302 OA
BRANCH  23  24
ATOM     24  C           0     137.496 134.616 143.190  0.00  0.00     0.358 C 
ATOM     25  N           0     136.714 135.644 143.575  0.00  0.00    -0.346 N 
ATOM     26  H           0     135.779 135.490 143.787  0.00  0.00     0.161 HD
ATOM     27  H           0     137.085 136.538 143.639  0.00  0.00     0.161 HD
ATOM     28  O           0     138.666 134.808 142.924  0.00  0.00    -0.239 OA
ENDBRANCH  23  24
ENDBRANCH  22  23
ENDBRANCH   6  22
BRANCH  18  29
ATOM     29  O           0     138.051 129.118 147.643  0.00  0.00    -0.362 OA
ATOM     30  H           0     137.384 129.093 148.343  0.00  0.00     0.213 HD
ENDBRANCH  18  29
BRANCH  18  31
ATOM     31  O           0     138.720 130.489 145.859  0.00  0.00    -0.362 OA
ATOM     32  H           0     138.262 131.152 145.324  0.00  0.00     0.213 HD
ENDBRANCH  18  31
TORSDOF 5
ENDMDL
MODEL 6
REMARK VINA RESULT:      -6.6      2.696      4.506
REMARK  5 active torsions:
REMARK  status: ('A' for Active; 'I' for Inactive)
REMARK    1  A    between atoms: C_6  and  C_7 
REMARK    2  A    between atoms: C_7  and  O_8 
REMARK    3  A    between atoms: O_8  and  C_9 
REMARK       I    between atoms: C_9  and  N_10 
REMARK    4  A    between atoms: C_23  and  O_24 
REMARK    5  A    between atoms: C_23  and  O_25 
ROOT
ATOM      1  N           0     134.808 129.782 145.218  0.00  0.00    -0.235 N 
ATOM      2  H           0     134.476 129.355 144.413  0.00  0.00     0.174 HD
ATOM      3  H           0     134.552 129.439 146.089  0.00  0.00     0.174 HD
ATOM      4  C           0     135.601 130.813 145.132  0.00  0.00     0.672 C 
ATOM      5  N           0     135.999 131.336 143.913  0.00  0.00    -0.218 N 
ATOM      6  C           0     136.324 132.757 143.844  0.00  0.00     0.151 C 
ATOM      7  C           0     137.311 133.183 144.914  0.00  0.00     0.180 C 
ATOM      8  N           0     138.668 132.746 144.525  0.00  0.00    -0.216 N 
ATOM      9  C           0     139.304 132.306 145.660  0.00  0.00     0.670 C 
ATOM     10  N           0     140.596 132.190 145.778  0.00  0.00    -0.235 N 
ATOM     11  H           0     141.174 132.422 145.034  0.00  0.00     0.174 HD
ATOM     12  H           0     140.981 131.873 146.610  0.00  0.00     0.174 HD
ATOM     13  C           0     137.087 132.523 146.265  0.00  0.00     0.217 C 
ATOM     14  N           0     138.409 132.005 146.656  0.00  0.00    -0.191 N 
ATOM     15  N           0     136.091 131.452 146.241  0.00  0.00    -0.183 N 
ATOM     16  C           0     135.693 131.257 147.647  0.00  0.00     0.150 C 
ATOM     17  C           0     135.658 132.688 148.236  0.00  0.00     0.093 C 
ATOM     18  C           0     136.586 133.525 147.319  0.00  0.00     0.209 C 
ATOM     19  H           0     136.061 130.772 143.127  0.00  0.00     0.178 HD
ATOM     20  H           0     139.043 132.767 143.630  0.00  0.00     0.178 HD
ATOM     21  H           0     138.612 131.533 147.479  0.00  0.00     0.180 HD
ENDROOT
BRANCH   6  22
ATOM     22  C           0     135.037 133.567 144.011  0.00  0.00     0.208 C 
BRANCH  22  23
ATOM     23  O           0     135.298 134.961 143.704  0.00  0.00    -0.302 OA
BRANCH  23  24
ATOM     24  C           0     134.505 135.620 142.837  0.00  0.00     0.358 C 
ATOM     25  N           0     134.562 136.965 142.760  0.00  0.00    -0.346 N 
ATOM     26  H           0     135.175 137.458 143.329  0.00  0.00     0.161 HD
ATOM     27  H           0     133.991 137.439 142.137  0.00  0.00     0.161 HD
ATOM     28  O           0     133.738 135.003 142.125  0.00  0.00    -0.239 OA
ENDBRANCH  23  24
ENDBRANCH  22  23
ENDBRANCH   6  22
BRANCH  18  29
ATOM     29  O           0     137.679 134.056 148.069  0.00  0.00    -0.362 OA
ATOM     30  H           0     137.729 133.547 148.890  0.00  0.00     0.213 HD
ENDBRANCH  18  29
BRANCH  18  31
ATOM     31  O           0     135.850 134.578 146.693  0.00  0.00    -0.362 OA
ATOM     32  H           0     135.280 134.963 147.373  0.00  0.00     0.213 HD
ENDBRANCH  18  31
TORSDOF 5
ENDMDL
MODEL 7
REMARK VINA RESULT:      -6.6      2.912      5.736
REMARK  5 active torsions:
REMARK  status: ('A' for Active; 'I' for Inactive)
REMARK    1  A    between atoms: C_6  and  C_7 
REMARK    2  A    between atoms: C_7  and  O_8 
REMARK    3  A    between atoms: O_8  and  C_9 
REMARK       I    between atoms: C_9  and  N_10 
REMARK    4  A    between atoms: C_23  and  O_24 
REMARK    5  A    between atoms: C_23  and  O_25 
ROOT
ATOM      1  N           0     138.804 130.752 145.517  0.00  0.00    -0.235 N 
ATOM      2  H           0     138.926 130.058 146.182  0.00  0.00     0.174 HD
ATOM      3  H           0     139.558 131.053 144.986  0.00  0.00     0.174 HD
ATOM      4  C           0     137.626 131.280 145.333  0.00  0.00     0.672 C 
ATOM      5  N           0     136.519 130.881 146.063  0.00  0.00    -0.218 N 
ATOM      6  C           0     135.450 131.852 146.283  0.00  0.00     0.151 C 
ATOM      7  C           0     134.988 132.513 145.000  0.00  0.00     0.180 C 
ATOM      8  N           0     134.124 131.575 144.253  0.00  0.00    -0.216 N 
ATOM      9  C           0     134.430 131.702 142.920  0.00  0.00     0.670 C 
ATOM     10  N           0     133.649 131.317 141.949  0.00  0.00    -0.235 N 
ATOM     11  H           0     132.791 130.912 142.149  0.00  0.00     0.174 HD
ATOM     12  H           0     133.926 131.437 141.027  0.00  0.00     0.174 HD
ATOM     13  C           0     136.110 132.832 144.025  0.00  0.00     0.217 C 
ATOM     14  N           0     135.659 132.284 142.735  0.00  0.00    -0.191 N 
ATOM     15  N           0     137.404 132.268 144.410  0.00  0.00    -0.183 N 
ATOM     16  C           0     138.406 133.027 143.639  0.00  0.00     0.150 C 
ATOM     17  C           0     137.870 134.479 143.642  0.00  0.00     0.093 C 
ATOM     18  C           0     136.347 134.346 143.896  0.00  0.00     0.209 C 
ATOM     19  H           0     136.454 129.981 146.417  0.00  0.00     0.178 HD
ATOM     20  H           0     133.462 130.977 144.634  0.00  0.00     0.178 HD
ATOM     21  H           0     136.146 132.329 141.898  0.00  0.00     0.180 HD
ENDROOT
BRANCH   6  22
ATOM     22  C           0     135.955 132.932 147.241  0.00  0.00     0.208 C 
BRANCH  22  23
ATOM     23  O           0     135.237 132.839 148.499  0.00  0.00    -0.302 OA
BRANCH  23  24
ATOM     24  C           0     134.641 131.684 148.851  0.00  0.00     0.358 C 
ATOM     25  N           0     133.296 131.600 148.875  0.00  0.00    -0.346 N 
ATOM     26  H           0     132.757 132.372 148.640  0.00  0.00     0.161 HD
ATOM     27  H           0     132.867 130.768 149.129  0.00  0.00     0.161 HD
ATOM     28  O           0     135.316 130.718 149.145  0.00  0.00    -0.239 OA
ENDBRANCH  23  24
ENDBRANCH  22  23
ENDBRANCH   6  22
BRANCH  18  29
ATOM     29  O           0     135.610 134.878 142.793  0.00  0.00    -0.362 OA
ATOM     30  H           0     136.064 134.590 141.989  0.00  0.00     0.213 HD
ENDBRANCH  18  29
BRANCH  18  31
ATOM     31  O           0     135.983 135.011 145.107  0.00  0.00    -0.362 OA
ATOM     32  H           0     136.396 134.519 145.830  0.00  0.00     0.213 HD
ENDBRANCH  18  31
TORSDOF 5
ENDMDL
MODEL 8
REMARK VINA RESULT:      -6.4      8.598     10.494
REMARK  5 active torsions:
REMARK  status: ('A' for Active; 'I' for Inactive)
REMARK    1  A    between atoms: C_6  and  C_7 
REMARK    2  A    between atoms: C_7  and  O_8 
REMARK    3  A    between atoms: O_8  and  C_9 
REMARK       I    between atoms: C_9  and  N_10 
REMARK    4  A    between atoms: C_23  and  O_24 
REMARK    5  A    between atoms: C_23  and  O_25 
ROOT
ATOM      1  N           0     128.958 132.862 132.338  0.00  0.00    -0.235 N 
ATOM      2  H           0     128.365 132.130 132.568  0.00  0.00     0.174 HD
ATOM      3  H           0     128.809 133.370 131.525  0.00  0.00     0.174 HD
ATOM      4  C           0     129.953 133.166 133.123  0.00  0.00     0.672 C 
ATOM      5  N           0     130.205 132.475 134.296  0.00  0.00    -0.218 N 
ATOM      6  C           0     131.581 132.410 134.779  0.00  0.00     0.151 C 
ATOM      7  C           0     132.237 133.775 134.857  0.00  0.00     0.180 C 
ATOM      8  N           0     131.739 134.486 136.053  0.00  0.00    -0.216 N 
ATOM      9  C           0     131.561 135.804 135.708  0.00  0.00     0.670 C 
ATOM     10  N           0     131.484 136.782 136.565  0.00  0.00    -0.235 N 
ATOM     11  H           0     131.555 136.600 137.516  0.00  0.00     0.174 HD
ATOM     12  H           0     131.358 137.692 136.253  0.00  0.00     0.174 HD
ATOM     13  C           0     131.882 134.702 133.706  0.00  0.00     0.217 C 
ATOM     14  N           0     131.473 135.963 134.347  0.00  0.00    -0.191 N 
ATOM     15  N           0     130.822 134.188 132.839  0.00  0.00    -0.183 N 
ATOM     16  C           0     130.932 134.959 131.588  0.00  0.00     0.150 C 
ATOM     17  C           0     132.456 135.122 131.371  0.00  0.00     0.093 C 
ATOM     18  C           0     133.083 134.954 132.778  0.00  0.00     0.209 C 
ATOM     19  H           0     129.485 132.045 134.784  0.00  0.00     0.178 HD
ATOM     20  H           0     131.569 134.095 136.925  0.00  0.00     0.178 HD
ATOM     21  H           0     131.192 136.769 133.887  0.00  0.00     0.180 HD
ENDROOT
BRANCH   6  22
ATOM     22  C           0     132.395 131.525 133.834  0.00  0.00     0.208 C 
BRANCH  22  23
ATOM     23  O           0     133.227 130.624 134.610  0.00  0.00    -0.302 OA
BRANCH  23  24
ATOM     24  C           0     134.473 130.329 134.193  0.00  0.00     0.358 C 
ATOM     25  N           0     135.319 131.318 133.845  0.00  0.00    -0.346 N 
ATOM     26  H           0     135.031 132.244 133.896  0.00  0.00     0.161 HD
ATOM     27  H           0     136.216 131.106 133.543  0.00  0.00     0.161 HD
ATOM     28  O           0     134.833 129.170 134.129  0.00  0.00    -0.239 OA
ENDBRANCH  23  24
ENDBRANCH  22  23
ENDBRANCH   6  22
BRANCH  18  29
ATOM     29  O           0     133.774 136.144 133.161  0.00  0.00    -0.362 OA
ATOM     30  H           0     134.366 136.370 132.431  0.00  0.00     0.213 HD
ENDBRANCH  18  29
BRANCH  18  31
ATOM     31  O           0     133.969 133.832 132.798  0.00  0.00    -0.362 OA
ATOM     32  H           0     133.746 133.287 132.031  0.00  0.00     0.213 HD
ENDBRANCH  18  31
TORSDOF 5
ENDMDL
MODEL 9
REMARK VINA RESULT:      -6.3      7.470     10.174
REMARK  5 active torsions:
REMARK  status: ('A' for Active; 'I' for Inactive)
REMARK    1  A    between atoms: C_6  and  C_7 
REMARK    2  A    between atoms: C_7  and  O_8 
REMARK    3  A    between atoms: O_8  and  C_9 
REMARK       I    between atoms: C_9  and  N_10 
REMARK    4  A    between atoms: C_23  and  O_24 
REMARK    5  A    between atoms: C_23  and  O_25 
ROOT
ATOM      1  N           0     132.726 138.110 132.050  0.00  0.00    -0.235 N 
ATOM      2  H           0     132.095 138.795 131.776  0.00  0.00     0.174 HD
ATOM      3  H           0     133.650 138.158 131.757  0.00  0.00     0.174 HD
ATOM      4  C           0     132.334 137.129 132.813  0.00  0.00     0.672 C 
ATOM      5  N           0     131.029 137.020 133.261  0.00  0.00    -0.218 N 
ATOM      6  C           0     130.504 135.687 133.544  0.00  0.00     0.151 C 
ATOM      7  C           0     131.411 134.884 134.456  0.00  0.00     0.180 C 
ATOM      8  N           0     131.246 135.359 135.846  0.00  0.00    -0.216 N 
ATOM      9  C           0     132.489 135.367 136.431  0.00  0.00     0.670 C 
ATOM     10  N           0     132.692 135.376 137.719  0.00  0.00    -0.235 N 
ATOM     11  H           0     131.937 135.376 138.328  0.00  0.00     0.174 HD
ATOM     12  H           0     133.597 135.381 138.067  0.00  0.00     0.174 HD
ATOM     13  C           0     132.894 135.071 134.179  0.00  0.00     0.217 C 
ATOM     14  N           0     133.490 135.366 135.493  0.00  0.00    -0.191 N 
ATOM     15  N           0     133.186 136.136 133.220  0.00  0.00    -0.183 N 
ATOM     16  C           0     134.560 135.874 132.752  0.00  0.00     0.150 C 
ATOM     17  C           0     134.637 134.332 132.639  0.00  0.00     0.093 C 
ATOM     18  C           0     133.533 133.802 133.589  0.00  0.00     0.209 C 
ATOM     19  H           0     130.478 137.808 133.383  0.00  0.00     0.178 HD
ATOM     20  H           0     130.412 135.618 136.269  0.00  0.00     0.178 HD
ATOM     21  H           0     134.431 135.529 135.666  0.00  0.00     0.180 HD
ENDROOT
BRANCH   6  22
ATOM     22  C           0     130.338 134.931 132.224  0.00  0.00     0.208 C 
BRANCH  22  23
ATOM     23  O           0     128.980 134.433 132.118  0.00  0.00    -0.302 OA
BRANCH  23  24
ATOM     24  C           0     128.753 133.109 132.024  0.00  0.00     0.358 C 
ATOM     25  N           0     129.506 132.244 132.733  0.00  0.00    -0.346 N 
ATOM     26  H           0     130.211 132.575 133.311  0.00  0.00     0.161 HD
ATOM     27  H           0     129.343 131.290 132.665  0.00  0.00     0.161 HD
ATOM     28  O           0     127.869 132.694 131.300  0.00  0.00    -0.239 OA
ENDBRANCH  23  24
ENDBRANCH  22  23
ENDBRANCH   6  22
BRANCH  18  29
ATOM     29  O           0     134.108 133.000 134.622  0.00  0.00    -0.362 OA
ATOM     30  H           0     134.119 133.543 135.423  0.00  0.00     0.213 HD
ENDBRANCH  18  29
BRANCH  18  31
ATOM     31  O           0     132.563 133.052 132.855  0.00  0.00    -0.362 OA
ATOM     32  H           0     131.763 133.595 132.815  0.00  0.00     0.213 HD
ENDBRANCH  18  31
TORSDOF 5
ENDMDL
