# created with PyMOL 2.3.4
@<TRIPOS>MOLECULE
ligand_out_0001
28 30 1                 
SMALL
USER_CHARGES
@<TRIPOS>ATOM
1	   N	135.546	132.679	147.126	N.3	1	UNK0	-0.235	
2	   N	136.800	134.436	146.187	N.3	1	UNK0	-0.218	
3	   N	136.238	136.082	143.645	N.3	1	UNK0	-0.216	
4	   N	134.283	136.743	142.489	N.3	1	UNK0	-0.235	
5	   N	134.683	134.505	143.140	N.3	1	UNK0	-0.191	
6	   N	135.583	133.003	144.808	N.3	1	UNK0	-0.183	
7	   C	135.956	133.344	146.082	C.3	1	UNK0	0.672	
8	   C	137.690	134.733	145.068	C.3	1	UNK0	0.150	
9	   C	136.960	134.796	143.742	C.3	1	UNK0	0.180	
10	   C	135.023	135.832	143.056	C.3	1	UNK0	0.670	
11	   C	135.867	133.751	143.582	C.3	1	UNK0	0.217	
12	   C	134.869	131.790	144.367	C.3	1	UNK0	0.150	
13	   C	135.576	131.386	143.051	C.3	1	UNK0	0.093	
14	   C	136.235	132.690	142.532	C.3	1	UNK0	0.209	
15	   C	138.762	133.645	144.989	C.2	1	UNK0	0.192	
16	   O	135.702	133.042	141.253	O.2	1	UNK0	-0.362	
17	   O	137.653	132.536	142.457	O.2	1	UNK0	-0.362	
18	   O	139.764	133.888	145.979	O.2	1	UNK0	-0.399	
19	   H	135.834	132.945	148.013	 H	1	UNK0	0.174	
20	   H	134.952	131.921	147.015	 H	1	UNK0	0.174	
21	   H	134.582	137.665	142.463	 H	1	UNK0	0.174	
22	   H	133.433	136.498	142.089	 H	1	UNK0	0.174	
23	   H	136.799	134.989	146.984	 H	1	UNK0	0.178	
24	   H	136.562	136.946	143.943	 H	1	UNK0	0.178	
25	   H	133.813	134.128	142.937	 H	1	UNK0	0.180	
26	   H	134.938	132.470	141.102	 H	1	UNK0	0.213	
27	   H	138.041	133.276	142.944	 H	1	UNK0	0.213	
28	   H	140.604	133.981	145.511	 H	1	UNK0	0.209	
@<TRIPOS>BOND
1 1 7 1
2 1 19 1
3 1 20 1
4 2 8 1
5 2 23 1
6 3 10 1
7 3 24 1
8 4 21 1
9 4 22 1
10 5 25 1
11 6 12 1
12 2 7 1
13 6 7 1
14 8 9 1
15 8 15 1
16 3 9 1
17 9 11 1
18 4 10 1
19 5 10 1
20 5 11 1
21 6 11 1
22 11 14 1
23 12 13 1
24 13 14 1
25 14 16 2
26 14 17 2
27 15 18 2
28 16 26 1
29 17 27 1
30 18 28 1
@<TRIPOS>SUBSTRUCTURE
1	UNK0	1	GROUP	1 ****	UNK
