MODEL 1
REMARK VINA RESULT:      -7.8      0.000      0.000
REMARK  4 active torsions:
REMARK  status: ('A' for Active; 'I' for Inactive)
REMARK    1  A    between atoms: C_6  and  C_7 
REMARK    2  A    between atoms: C_7  and  O_8 
REMARK    3  A    between atoms: C_20  and  O_21 
REMARK    4  A    between atoms: C_20  and  O_22 
ROOT
ATOM      1  N           0     135.546 132.679 147.126  0.00  0.00    -0.235 N 
ATOM      2  H           0     135.834 132.945 148.013  0.00  0.00     0.174 HD
ATOM      3  H           0     134.952 131.921 147.015  0.00  0.00     0.174 HD
ATOM      4  C           0     135.956 133.344 146.082  0.00  0.00     0.672 C 
ATOM      5  N           0     136.800 134.436 146.187  0.00  0.00    -0.218 N 
ATOM      6  C           0     137.690 134.733 145.068  0.00  0.00     0.150 C 
ATOM      7  C           0     136.960 134.796 143.742  0.00  0.00     0.180 C 
ATOM      8  N           0     136.238 136.082 143.645  0.00  0.00    -0.216 N 
ATOM      9  C           0     135.023 135.832 143.056  0.00  0.00     0.670 C 
ATOM     10  N           0     134.283 136.743 142.489  0.00  0.00    -0.235 N 
ATOM     11  H           0     134.582 137.665 142.463  0.00  0.00     0.174 HD
ATOM     12  H           0     133.433 136.498 142.089  0.00  0.00     0.174 HD
ATOM     13  C           0     135.867 133.751 143.582  0.00  0.00     0.217 C 
ATOM     14  N           0     134.683 134.505 143.140  0.00  0.00    -0.191 N 
ATOM     15  N           0     135.583 133.003 144.808  0.00  0.00    -0.183 N 
ATOM     16  C           0     134.869 131.790 144.367  0.00  0.00     0.150 C 
ATOM     17  C           0     135.576 131.386 143.051  0.00  0.00     0.093 C 
ATOM     18  C           0     136.235 132.690 142.532  0.00  0.00     0.209 C 
ATOM     19  H           0     136.799 134.989 146.984  0.00  0.00     0.178 HD
ATOM     20  H           0     136.562 136.946 143.943  0.00  0.00     0.178 HD
ATOM     21  H           0     133.813 134.128 142.937  0.00  0.00     0.180 HD
ENDROOT
BRANCH  18  22
ATOM     22  O           0     135.702 133.042 141.253  0.00  0.00    -0.362 OA
ATOM     23  H           0     134.938 132.470 141.102  0.00  0.00     0.213 HD
ENDBRANCH  18  22
BRANCH  18  24
ATOM     24  O           0     137.653 132.536 142.457  0.00  0.00    -0.362 OA
ATOM     25  H           0     138.041 133.276 142.944  0.00  0.00     0.213 HD
ENDBRANCH  18  24
BRANCH   6  26
ATOM     26  C           0     138.762 133.645 144.989  0.00  0.00     0.192 C 
BRANCH  26  27
ATOM     27  O           0     139.764 133.888 145.979  0.00  0.00    -0.399 OA
ATOM     28  H           0     140.604 133.981 145.511  0.00  0.00     0.209 HD
ENDBRANCH  26  27
ENDBRANCH   6  26
TORSDOF 4
ENDMDL
MODEL 2
REMARK VINA RESULT:      -7.4      1.784      2.405
REMARK  4 active torsions:
REMARK  status: ('A' for Active; 'I' for Inactive)
REMARK    1  A    between atoms: C_6  and  C_7 
REMARK    2  A    between atoms: C_7  and  O_8 
REMARK    3  A    between atoms: C_20  and  O_21 
REMARK    4  A    between atoms: C_20  and  O_22 
ROOT
ATOM      1  N           0     135.937 134.703 146.906  0.00  0.00    -0.235 N 
ATOM      2  H           0     136.257 135.598 147.099  0.00  0.00     0.174 HD
ATOM      3  H           0     135.624 134.133 147.626  0.00  0.00     0.174 HD
ATOM      4  C           0     135.925 134.266 145.678  0.00  0.00     0.672 C 
ATOM      5  N           0     136.356 135.042 144.615  0.00  0.00    -0.218 N 
ATOM      6  C           0     136.903 134.367 143.442  0.00  0.00     0.150 C 
ATOM      7  C           0     135.991 133.274 142.920  0.00  0.00     0.180 C 
ATOM      8  N           0     134.872 133.888 142.176  0.00  0.00    -0.216 N 
ATOM      9  C           0     133.735 133.179 142.478  0.00  0.00     0.670 C 
ATOM     10  N           0     132.650 133.193 141.755  0.00  0.00    -0.235 N 
ATOM     11  H           0     132.612 133.726 140.946  0.00  0.00     0.174 HD
ATOM     12  H           0     131.881 132.667 142.026  0.00  0.00     0.174 HD
ATOM     13  C           0     135.305 132.463 144.009  0.00  0.00     0.217 C 
ATOM     14  N           0     133.881 132.456 143.636  0.00  0.00    -0.191 N 
ATOM     15  N           0     135.490 133.007 145.355  0.00  0.00    -0.183 N 
ATOM     16  C           0     135.168 131.898 146.271  0.00  0.00     0.150 C 
ATOM     17  C           0     135.748 130.644 145.576  0.00  0.00     0.093 C 
ATOM     18  C           0     135.836 131.022 144.074  0.00  0.00     0.209 C 
ATOM     19  H           0     136.297 136.010 144.651  0.00  0.00     0.178 HD
ATOM     20  H           0     134.929 134.652 141.582  0.00  0.00     0.178 HD
ATOM     21  H           0     133.169 132.014 144.122  0.00  0.00     0.180 HD
ENDROOT
BRANCH  18  22
ATOM     22  O           0     135.019 130.148 143.293  0.00  0.00    -0.362 OA
ATOM     23  H           0     135.162 129.254 143.631  0.00  0.00     0.213 HD
ENDBRANCH  18  22
BRANCH  18  24
ATOM     24  O           0     137.192 130.971 143.626  0.00  0.00    -0.362 OA
ATOM     25  H           0     137.633 130.284 144.147  0.00  0.00     0.213 HD
ENDBRANCH  18  24
BRANCH   6  26
ATOM     26  C           0     138.252 133.748 143.812  0.00  0.00     0.192 C 
BRANCH  26  27
ATOM     27  O           0     138.762 133.014 142.696  0.00  0.00    -0.399 OA
ATOM     28  H           0     138.828 132.091 142.976  0.00  0.00     0.209 HD
ENDBRANCH  26  27
ENDBRANCH   6  26
TORSDOF 4
ENDMDL
MODEL 3
REMARK VINA RESULT:      -7.3      1.416      4.386
REMARK  4 active torsions:
REMARK  status: ('A' for Active; 'I' for Inactive)
REMARK    1  A    between atoms: C_6  and  C_7 
REMARK    2  A    between atoms: C_7  and  O_8 
REMARK    3  A    between atoms: C_20  and  O_21 
REMARK    4  A    between atoms: C_20  and  O_22 
ROOT
ATOM      1  N           0     135.017 136.668 143.131  0.00  0.00    -0.235 N 
ATOM      2  H           0     134.232 137.095 142.755  0.00  0.00     0.174 HD
ATOM      3  H           0     135.776 137.205 143.408  0.00  0.00     0.174 HD
ATOM      4  C           0     135.051 135.372 143.267  0.00  0.00     0.672 C 
ATOM      5  N           0     133.993 134.563 142.892  0.00  0.00    -0.218 N 
ATOM      6  C           0     134.281 133.193 142.480  0.00  0.00     0.150 C 
ATOM      7  C           0     135.142 132.450 143.482  0.00  0.00     0.180 C 
ATOM      8  N           0     134.308 132.040 144.631  0.00  0.00    -0.216 N 
ATOM      9  C           0     135.055 132.217 145.770  0.00  0.00     0.670 C 
ATOM     10  N           0     134.798 131.640 146.910  0.00  0.00    -0.235 N 
ATOM     11  H           0     134.040 131.041 146.991  0.00  0.00     0.174 HD
ATOM     12  H           0     135.368 131.808 147.677  0.00  0.00     0.174 HD
ATOM     13  C           0     136.238 133.298 144.110  0.00  0.00     0.217 C 
ATOM     14  N           0     136.103 133.078 145.559  0.00  0.00    -0.191 N 
ATOM     15  N           0     136.141 134.722 143.786  0.00  0.00    -0.183 N 
ATOM     16  C           0     137.473 135.280 144.081  0.00  0.00     0.150 C 
ATOM     17  C           0     138.460 134.182 143.621  0.00  0.00     0.093 C 
ATOM     18  C           0     137.638 132.867 143.643  0.00  0.00     0.209 C 
ATOM     19  H           0     133.083 134.899 142.903  0.00  0.00     0.178 HD
ATOM     20  H           0     133.398 131.707 144.588  0.00  0.00     0.178 HD
ATOM     21  H           0     136.661 133.470 146.248  0.00  0.00     0.180 HD
ENDROOT
BRANCH  18  22
ATOM     22  O           0     138.211 131.937 144.564  0.00  0.00    -0.362 OA
ATOM     23  H           0     137.502 131.336 144.832  0.00  0.00     0.213 HD
ENDBRANCH  18  22
BRANCH  18  24
ATOM     24  O           0     137.572 132.298 142.334  0.00  0.00    -0.362 OA
ATOM     25  H           0     137.422 131.349 142.449  0.00  0.00     0.213 HD
ENDBRANCH  18  24
BRANCH   6  26
ATOM     26  C           0     135.009 133.225 141.134  0.00  0.00     0.192 C 
BRANCH  26  27
ATOM     27  O           0     134.219 133.942 140.182  0.00  0.00    -0.399 OA
ATOM     28  H           0     133.824 133.284 139.595  0.00  0.00     0.209 HD
ENDBRANCH  26  27
ENDBRANCH   6  26
TORSDOF 4
ENDMDL
MODEL 4
REMARK VINA RESULT:      -6.8      2.672      3.858
REMARK  4 active torsions:
REMARK  status: ('A' for Active; 'I' for Inactive)
REMARK    1  A    between atoms: C_6  and  C_7 
REMARK    2  A    between atoms: C_7  and  O_8 
REMARK    3  A    between atoms: C_20  and  O_21 
REMARK    4  A    between atoms: C_20  and  O_22 
ROOT
ATOM      1  N           0     138.731 130.499 145.776  0.00  0.00    -0.235 N 
ATOM      2  H           0     138.602 129.588 146.081  0.00  0.00     0.174 HD
ATOM      3  H           0     139.610 130.906 145.819  0.00  0.00     0.174 HD
ATOM      4  C           0     137.722 131.176 145.304  0.00  0.00     0.672 C 
ATOM      5  N           0     136.449 130.639 145.217  0.00  0.00    -0.218 N 
ATOM      6  C           0     135.308 131.546 145.295  0.00  0.00     0.150 C 
ATOM      7  C           0     135.421 132.710 144.331  0.00  0.00     0.180 C 
ATOM      8  N           0     135.094 132.247 142.967  0.00  0.00    -0.216 N 
ATOM      9  C           0     135.962 132.864 142.100  0.00  0.00     0.670 C 
ATOM     10  N           0     135.754 132.984 140.818  0.00  0.00    -0.235 N 
ATOM     11  H           0     134.945 132.627 140.422  0.00  0.00     0.174 HD
ATOM     12  H           0     136.409 133.434 140.261  0.00  0.00     0.174 HD
ATOM     13  C           0     136.828 133.273 144.198  0.00  0.00     0.217 C 
ATOM     14  N           0     137.074 133.338 142.749  0.00  0.00    -0.191 N 
ATOM     15  N           0     137.851 132.469 144.868  0.00  0.00    -0.183 N 
ATOM     16  C           0     139.013 133.364 145.019  0.00  0.00     0.150 C 
ATOM     17  C           0     138.395 134.740 145.360  0.00  0.00     0.093 C 
ATOM     18  C           0     136.946 134.678 144.813  0.00  0.00     0.209 C 
ATOM     19  H           0     136.320 129.683 145.108  0.00  0.00     0.178 HD
ATOM     20  H           0     134.394 131.620 142.727  0.00  0.00     0.178 HD
ATOM     21  H           0     137.883 133.663 142.324  0.00  0.00     0.180 HD
ENDROOT
BRANCH  18  22
ATOM     22  O           0     136.747 135.682 143.815  0.00  0.00    -0.362 OA
ATOM     23  H           0     137.623 135.935 143.494  0.00  0.00     0.213 HD
ENDBRANCH  18  22
BRANCH  18  24
ATOM     24  O           0     136.004 134.836 145.875  0.00  0.00    -0.362 OA
ATOM     25  H           0     136.397 134.428 146.660  0.00  0.00     0.213 HD
ENDBRANCH  18  24
BRANCH   6  26
ATOM     26  C           0     135.208 132.093 146.720  0.00  0.00     0.192 C 
BRANCH  26  27
ATOM     27  O           0     134.531 131.146 147.549  0.00  0.00    -0.399 OA
ATOM     28  H           0     133.951 131.651 148.133  0.00  0.00     0.209 HD
ENDBRANCH  26  27
ENDBRANCH   6  26
TORSDOF 4
ENDMDL
MODEL 5
REMARK VINA RESULT:      -6.8      2.472      4.367
REMARK  4 active torsions:
REMARK  status: ('A' for Active; 'I' for Inactive)
REMARK    1  A    between atoms: C_6  and  C_7 
REMARK    2  A    between atoms: C_7  and  O_8 
REMARK    3  A    between atoms: C_20  and  O_21 
REMARK    4  A    between atoms: C_20  and  O_22 
ROOT
ATOM      1  N           0     135.251 130.568 143.110  0.00  0.00    -0.235 N 
ATOM      2  H           0     135.051 130.403 142.176  0.00  0.00     0.174 HD
ATOM      3  H           0     134.899 129.977 143.794  0.00  0.00     0.174 HD
ATOM      4  C           0     135.998 131.582 143.446  0.00  0.00     0.672 C 
ATOM      5  N           0     136.528 132.451 142.508  0.00  0.00    -0.218 N 
ATOM      6  C           0     136.790 133.830 142.911  0.00  0.00     0.150 C 
ATOM      7  C           0     137.604 133.920 144.187  0.00  0.00     0.180 C 
ATOM      8  N           0     139.020 133.629 143.882  0.00  0.00    -0.216 N 
ATOM      9  C           0     139.519 132.872 144.914  0.00  0.00     0.670 C 
ATOM     10  N           0     140.789 132.734 145.173  0.00  0.00    -0.235 N 
ATOM     11  H           0     141.449 133.182 144.622  0.00  0.00     0.174 HD
ATOM     12  H           0     141.074 132.183 145.920  0.00  0.00     0.174 HD
ATOM     13  C           0     137.234 132.883 145.236  0.00  0.00     0.217 C 
ATOM     14  N           0     138.515 132.278 145.638  0.00  0.00    -0.191 N 
ATOM     15  N           0     136.303 131.861 144.753  0.00  0.00    -0.183 N 
ATOM     16  C           0     135.731 131.251 145.967  0.00  0.00     0.150 C 
ATOM     17  C           0     135.548 132.437 146.943  0.00  0.00     0.093 C 
ATOM     18  C           0     136.549 133.517 146.456  0.00  0.00     0.209 C 
ATOM     19  H           0     136.720 132.150 141.606  0.00  0.00     0.178 HD
ATOM     20  H           0     139.509 133.919 143.097  0.00  0.00     0.178 HD
ATOM     21  H           0     138.631 131.583 146.303  0.00  0.00     0.180 HD
ENDROOT
BRANCH  18  22
ATOM     22  O           0     137.506 133.806 147.478  0.00  0.00    -0.362 OA
ATOM     23  H           0     137.049 134.332 148.148  0.00  0.00     0.213 HD
ENDBRANCH  18  22
BRANCH  18  24
ATOM     24  O           0     135.853 134.704 146.074  0.00  0.00    -0.362 OA
ATOM     25  H           0     136.511 135.307 145.702  0.00  0.00     0.213 HD
ENDBRANCH  18  24
BRANCH   6  26
ATOM     26  C           0     135.455 134.543 143.127  0.00  0.00     0.192 C 
BRANCH  26  27
ATOM     27  O           0     135.689 135.931 143.376  0.00  0.00    -0.399 OA
ATOM     28  H           0     134.824 136.348 143.474  0.00  0.00     0.209 HD
ENDBRANCH  26  27
ENDBRANCH   6  26
TORSDOF 4
ENDMDL
MODEL 6
REMARK VINA RESULT:      -6.6      2.745      4.080
REMARK  4 active torsions:
REMARK  status: ('A' for Active; 'I' for Inactive)
REMARK    1  A    between atoms: C_6  and  C_7 
REMARK    2  A    between atoms: C_7  and  O_8 
REMARK    3  A    between atoms: C_20  and  O_21 
REMARK    4  A    between atoms: C_20  and  O_22 
ROOT
ATOM      1  N           0     139.036 130.425 145.969  0.00  0.00    -0.235 N 
ATOM      2  H           0     139.183 129.582 146.425  0.00  0.00     0.174 HD
ATOM      3  H           0     139.786 130.904 145.581  0.00  0.00     0.174 HD
ATOM      4  C           0     137.832 130.913 145.874  0.00  0.00     0.672 C 
ATOM      5  N           0     136.730 130.266 146.405  0.00  0.00    -0.218 N 
ATOM      6  C           0     135.588 131.073 146.825  0.00  0.00     0.150 C 
ATOM      7  C           0     135.127 132.036 145.749  0.00  0.00     0.180 C 
ATOM      8  N           0     134.359 131.293 144.728  0.00  0.00    -0.216 N 
ATOM      9  C           0     134.703 131.802 143.500  0.00  0.00     0.670 C 
ATOM     10  N           0     133.986 131.656 142.420  0.00  0.00    -0.235 N 
ATOM     11  H           0     133.152 131.163 142.454  0.00  0.00     0.174 HD
ATOM     12  H           0     134.287 132.043 141.583  0.00  0.00     0.174 HD
ATOM     13  C           0     136.258 132.678 144.961  0.00  0.00     0.217 C 
ATOM     14  N           0     135.894 132.482 143.548  0.00  0.00    -0.191 N 
ATOM     15  N           0     137.575 132.104 145.246  0.00  0.00    -0.183 N 
ATOM     16  C           0     138.547 133.105 144.768  0.00  0.00     0.150 C 
ATOM     17  C           0     137.911 134.465 145.140  0.00  0.00     0.093 C 
ATOM     18  C           0     136.392 134.179 145.265  0.00  0.00     0.209 C 
ATOM     19  H           0     136.717 129.300 146.495  0.00  0.00     0.178 HD
ATOM     20  H           0     133.728 130.576 144.894  0.00  0.00     0.178 HD
ATOM     21  H           0     136.405 132.786 142.783  0.00  0.00     0.180 HD
ENDROOT
BRANCH  18  22
ATOM     22  O           0     135.659 134.952 144.312  0.00  0.00    -0.362 OA
ATOM     23  H           0     135.724 134.488 143.466  0.00  0.00     0.213 HD
ENDBRANCH  18  22
BRANCH  18  24
ATOM     24  O           0     135.939 134.460 146.590  0.00  0.00    -0.362 OA
ATOM     25  H           0     134.977 134.353 146.586  0.00  0.00     0.213 HD
ENDBRANCH  18  24
BRANCH   6  26
ATOM     26  C           0     135.981 131.874 148.068  0.00  0.00     0.192 C 
BRANCH  26  27
ATOM     27  O           0     134.836 132.569 148.569  0.00  0.00    -0.399 OA
ATOM     28  H           0     134.309 132.829 147.803  0.00  0.00     0.209 HD
ENDBRANCH  26  27
ENDBRANCH   6  26
TORSDOF 4
ENDMDL
MODEL 7
REMARK VINA RESULT:      -6.5      2.193      3.289
REMARK  4 active torsions:
REMARK  status: ('A' for Active; 'I' for Inactive)
REMARK    1  A    between atoms: C_6  and  C_7 
REMARK    2  A    between atoms: C_7  and  O_8 
REMARK    3  A    between atoms: C_20  and  O_21 
REMARK    4  A    between atoms: C_20  and  O_22 
ROOT
ATOM      1  N           0     135.092 132.804 147.130  0.00  0.00    -0.235 N 
ATOM      2  H           0     134.981 132.311 147.958  0.00  0.00     0.174 HD
ATOM      3  H           0     134.314 133.141 146.658  0.00  0.00     0.174 HD
ATOM      4  C           0     136.286 133.016 146.654  0.00  0.00     0.672 C 
ATOM      5  N           0     137.426 132.560 147.293  0.00  0.00    -0.218 N 
ATOM      6  C           0     138.603 132.263 146.480  0.00  0.00     0.150 C 
ATOM      7  C           0     138.976 133.403 145.554  0.00  0.00     0.180 C 
ATOM      8  N           0     139.651 134.462 146.333  0.00  0.00    -0.216 N 
ATOM      9  C           0     139.207 135.672 145.859  0.00  0.00     0.670 C 
ATOM     10  N           0     139.829 136.803 146.043  0.00  0.00    -0.235 N 
ATOM     11  H           0     140.661 136.824 146.541  0.00  0.00     0.174 HD
ATOM     12  H           0     139.460 137.624 145.680  0.00  0.00     0.174 HD
ATOM     13  C           0     137.784 134.112 144.929  0.00  0.00     0.217 C 
ATOM     14  N           0     138.027 135.544 145.170  0.00  0.00    -0.191 N 
ATOM     15  N           0     136.494 133.700 145.484  0.00  0.00    -0.183 N 
ATOM     16  C           0     135.489 134.124 144.492  0.00  0.00     0.150 C 
ATOM     17  C           0     136.160 133.850 143.126  0.00  0.00     0.093 C 
ATOM     18  C           0     137.683 133.845 143.418  0.00  0.00     0.209 C 
ATOM     19  H           0     137.442 132.440 148.255  0.00  0.00     0.178 HD
ATOM     20  H           0     140.291 134.327 147.049  0.00  0.00     0.178 HD
ATOM     21  H           0     137.454 136.272 144.887  0.00  0.00     0.180 HD
ENDROOT
BRANCH  18  22
ATOM     22  O           0     138.335 134.880 142.680  0.00  0.00    -0.362 OA
ATOM     23  H           0     137.639 135.426 142.289  0.00  0.00     0.213 HD
ENDBRANCH  18  22
BRANCH  18  24
ATOM     24  O           0     138.247 132.572 143.100  0.00  0.00    -0.362 OA
ATOM     25  H           0     139.132 132.552 143.490  0.00  0.00     0.213 HD
ENDBRANCH  18  24
BRANCH   6  26
ATOM     26  C           0     138.320 131.017 145.639  0.00  0.00     0.192 C 
BRANCH  26  27
ATOM     27  O           0     137.762 129.996 146.470  0.00  0.00    -0.399 OA
ATOM     28  H           0     138.455 129.337 146.607  0.00  0.00     0.209 HD
ENDBRANCH  26  27
ENDBRANCH   6  26
TORSDOF 4
ENDMDL
MODEL 8
REMARK VINA RESULT:      -6.4      8.525     10.920
REMARK  4 active torsions:
REMARK  status: ('A' for Active; 'I' for Inactive)
REMARK    1  A    between atoms: C_6  and  C_7 
REMARK    2  A    between atoms: C_7  and  O_8 
REMARK    3  A    between atoms: C_20  and  O_21 
REMARK    4  A    between atoms: C_20  and  O_22 
ROOT
ATOM      1  N           0     132.250 137.376 132.466  0.00  0.00    -0.235 N 
ATOM      2  H           0     131.490 137.970 132.361  0.00  0.00     0.174 HD
ATOM      3  H           0     133.006 137.444 131.863  0.00  0.00     0.174 HD
ATOM      4  C           0     132.255 136.489 133.421  0.00  0.00     0.672 C 
ATOM      5  N           0     131.202 136.356 134.310  0.00  0.00    -0.218 N 
ATOM      6  C           0     130.959 135.045 134.904  0.00  0.00     0.150 C 
ATOM      7  C           0     132.206 134.442 135.518  0.00  0.00     0.180 C 
ATOM      8  N           0     132.474 135.096 136.816  0.00  0.00    -0.216 N 
ATOM      9  C           0     133.832 135.270 136.919  0.00  0.00     0.670 C 
ATOM     10  N           0     134.460 135.475 138.044  0.00  0.00    -0.235 N 
ATOM     11  H           0     133.966 135.510 138.877  0.00  0.00     0.174 HD
ATOM     12  H           0     135.424 135.589 138.046  0.00  0.00     0.174 HD
ATOM     13  C           0     133.475 134.686 134.717  0.00  0.00     0.217 C 
ATOM     14  N           0     134.446 135.204 135.694  0.00  0.00    -0.191 N 
ATOM     15  N           0     133.301 135.623 133.606  0.00  0.00    -0.183 N 
ATOM     16  C           0     134.451 135.389 132.714  0.00  0.00     0.150 C 
ATOM     17  C           0     134.658 133.856 132.749  0.00  0.00     0.093 C 
ATOM     18  C           0     134.011 133.393 134.080  0.00  0.00     0.209 C 
ATOM     19  H           0     130.641 137.116 134.531  0.00  0.00     0.178 HD
ATOM     20  H           0     131.812 135.356 137.475  0.00  0.00     0.178 HD
ATOM     21  H           0     135.365 135.452 135.505  0.00  0.00     0.180 HD
ENDROOT
BRANCH  18  22
ATOM     22  O           0     134.991 132.785 134.925  0.00  0.00    -0.362 OA
ATOM     23  H           0     134.585 132.686 135.797  0.00  0.00     0.213 HD
ENDBRANCH  18  22
BRANCH  18  24
ATOM     24  O           0     132.940 132.484 133.824  0.00  0.00    -0.362 OA
ATOM     25  H           0     132.146 133.019 133.684  0.00  0.00     0.213 HD
ENDBRANCH  18  24
BRANCH   6  26
ATOM     26  C           0     130.438 134.100 133.818  0.00  0.00     0.192 C 
BRANCH  26  27
ATOM     27  O           0     130.167 132.819 134.391  0.00  0.00    -0.399 OA
ATOM     28  H           0     129.206 132.729 134.430  0.00  0.00     0.209 HD
ENDBRANCH  26  27
ENDBRANCH   6  26
TORSDOF 4
ENDMDL
MODEL 9
REMARK VINA RESULT:      -6.2      9.684     11.332
REMARK  4 active torsions:
REMARK  status: ('A' for Active; 'I' for Inactive)
REMARK    1  A    between atoms: C_6  and  C_7 
REMARK    2  A    between atoms: C_7  and  O_8 
REMARK    3  A    between atoms: C_20  and  O_21 
REMARK    4  A    between atoms: C_20  and  O_22 
ROOT
ATOM      1  N           0     134.459 132.876 132.604  0.00  0.00    -0.235 N 
ATOM      2  H           0     134.495 132.125 131.991  0.00  0.00     0.174 HD
ATOM      3  H           0     135.272 133.349 132.841  0.00  0.00     0.174 HD
ATOM      4  C           0     133.316 133.251 133.106  0.00  0.00     0.672 C 
ATOM      5  N           0     132.128 132.612 132.794  0.00  0.00    -0.218 N 
ATOM      6  C           0     131.054 132.627 133.784  0.00  0.00     0.150 C 
ATOM      7  C           0     130.749 134.021 134.293  0.00  0.00     0.180 C 
ATOM      8  N           0     129.963 134.750 133.275  0.00  0.00    -0.216 N 
ATOM      9  C           0     130.419 136.045 133.248  0.00  0.00     0.670 C 
ATOM     10  N           0     129.748 137.047 132.754  0.00  0.00    -0.235 N 
ATOM     11  H           0     128.868 136.902 132.375  0.00  0.00     0.174 HD
ATOM     12  H           0     130.129 137.940 132.767  0.00  0.00     0.174 HD
ATOM     13  C           0     131.979 134.892 134.498  0.00  0.00     0.217 C 
ATOM     14  N           0     131.669 136.153 133.805  0.00  0.00    -0.191 N 
ATOM     15  N           0     133.214 134.301 133.981  0.00  0.00    -0.183 N 
ATOM     16  C           0     134.306 135.034 134.648  0.00  0.00     0.150 C 
ATOM     17  C           0     133.793 135.258 136.090  0.00  0.00     0.093 C 
ATOM     18  C           0     132.248 135.166 135.987  0.00  0.00     0.209 C 
ATOM     19  H           0     132.014 132.166 131.941  0.00  0.00     0.178 HD
ATOM     20  H           0     129.255 134.381 132.725  0.00  0.00     0.178 HD
ATOM     21  H           0     132.248 136.930 133.753  0.00  0.00     0.180 HD
ENDROOT
BRANCH  18  22
ATOM     22  O           0     131.648 136.398 136.389  0.00  0.00    -0.362 OA
ATOM     23  H           0     131.431 136.881 135.579  0.00  0.00     0.213 HD
ENDBRANCH  18  22
BRANCH  18  24
ATOM     24  O           0     131.759 134.088 136.787  0.00  0.00    -0.362 OA
ATOM     25  H           0     132.504 133.773 137.318  0.00  0.00     0.213 HD
ENDBRANCH  18  24
BRANCH   6  26
ATOM     26  C           0     131.462 131.748 134.968  0.00  0.00     0.192 C 
BRANCH  26  27
ATOM     27  O           0     130.346 131.581 135.845  0.00  0.00    -0.399 OA
ATOM     28  H           0     130.703 131.333 136.707  0.00  0.00     0.209 HD
ENDBRANCH  26  27
ENDBRANCH   6  26
TORSDOF 4
ENDMDL
