MODEL 1
REMARK VINA RESULT:      -7.1      0.000      0.000
REMARK  4 active torsions:
REMARK  status: ('A' for Active; 'I' for Inactive)
REMARK    1  A    between atoms: C_6  and  C_7 
REMARK    2  A    between atoms: C_7  and  O_8 
REMARK    3  A    between atoms: C_20  and  O_21 
REMARK    4  A    between atoms: C_20  and  O_22 
ROOT
ATOM      1  N           0     135.979 134.742 146.756  0.00  0.00    -0.235 N 
ATOM      2  H           0     136.338 135.621 146.955  0.00  0.00     0.174 HD
ATOM      3  H           0     135.622 134.191 147.470  0.00  0.00     0.174 HD
ATOM      4  C           0     135.974 134.303 145.529  0.00  0.00     0.672 C 
ATOM      5  N           0     136.468 135.054 144.475  0.00  0.00    -0.218 N 
ATOM      6  C           0     137.007 134.349 143.316  0.00  0.00     0.150 C 
ATOM      7  C           0     136.055 133.301 142.775  0.00  0.00     0.180 C 
ATOM      8  N           0     134.985 133.967 142.004  0.00  0.00    -0.216 N 
ATOM      9  C           0     133.807 133.317 142.281  0.00  0.00     0.670 C 
ATOM     10  N           0     132.742 133.382 141.533  0.00  0.00    -0.235 N 
ATOM     11  H           0     132.749 133.914 140.722  0.00  0.00     0.174 HD
ATOM     12  H           0     131.941 132.896 141.787  0.00  0.00     0.174 HD
ATOM     13  C           0     135.305 132.528 143.849  0.00  0.00     0.217 C 
ATOM     14  N           0     133.891 132.591 143.443  0.00  0.00    -0.191 N 
ATOM     15  N           0     135.485 133.066 145.198  0.00  0.00    -0.183 N 
ATOM     16  C           0     135.087 131.977 146.109  0.00  0.00     0.150 C 
ATOM     17  C           0     135.621 130.694 145.429  0.00  0.00     0.093 C 
ATOM     18  C           0     135.762 131.062 143.929  0.00  0.00     0.209 C 
ATOM     19  H           0     136.455 136.023 144.508  0.00  0.00     0.178 HD
ATOM     20  H           0     135.093 134.726 141.410  0.00  0.00     0.178 HD
ATOM     21  H           0     133.146 132.185 143.913  0.00  0.00     0.180 HD
ENDROOT
BRANCH  18  22
ATOM     22  O           0     134.920 130.228 143.130  0.00  0.00    -0.362 OA
ATOM     23  H           0     134.014 130.542 143.257  0.00  0.00     0.213 HD
ENDBRANCH  18  22
BRANCH  18  24
ATOM     24  O           0     137.123 130.943 143.513  0.00  0.00    -0.362 OA
ATOM     25  H           0     137.539 130.294 144.098  0.00  0.00     0.213 HD
ENDBRANCH  18  24
BRANCH   6  26
ATOM     26  C           0     138.315 133.665 143.718  0.00  0.00     0.192 C 
BRANCH  26  27
ATOM     27  O           0     138.912 133.062 142.568  0.00  0.00    -0.399 OA
ATOM     28  H           0     139.162 132.164 142.821  0.00  0.00     0.209 HD
ENDBRANCH  26  27
ENDBRANCH   6  26
TORSDOF 4
ENDMDL
MODEL 2
REMARK VINA RESULT:      -6.8      1.765      2.449
REMARK  4 active torsions:
REMARK  status: ('A' for Active; 'I' for Inactive)
REMARK    1  A    between atoms: C_6  and  C_7 
REMARK    2  A    between atoms: C_7  and  O_8 
REMARK    3  A    between atoms: C_20  and  O_21 
REMARK    4  A    between atoms: C_20  and  O_22 
ROOT
ATOM      1  N           0     134.844 131.928 146.621  0.00  0.00    -0.235 N 
ATOM      2  H           0     135.104 131.984 147.554  0.00  0.00     0.174 HD
ATOM      3  H           0     134.157 131.301 146.346  0.00  0.00     0.174 HD
ATOM      4  C           0     135.416 132.697 145.739  0.00  0.00     0.672 C 
ATOM      5  N           0     136.398 133.610 146.082  0.00  0.00    -0.218 N 
ATOM      6  C           0     137.398 133.963 145.078  0.00  0.00     0.150 C 
ATOM      7  C           0     136.779 134.373 143.757  0.00  0.00     0.180 C 
ATOM      8  N           0     136.256 135.750 143.872  0.00  0.00    -0.216 N 
ATOM      9  C           0     135.063 135.798 143.194  0.00  0.00     0.670 C 
ATOM     10  N           0     134.502 136.898 142.776  0.00  0.00    -0.235 N 
ATOM     11  H           0     134.931 137.753 142.937  0.00  0.00     0.174 HD
ATOM     12  H           0     133.656 136.861 142.302  0.00  0.00     0.174 HD
ATOM     13  C           0     135.563 133.552 143.358  0.00  0.00     0.217 C 
ATOM     14  N           0     134.532 134.545 143.014  0.00  0.00    -0.191 N 
ATOM     15  N           0     135.089 132.650 144.408  0.00  0.00    -0.183 N 
ATOM     16  C           0     134.243 131.658 143.719  0.00  0.00     0.150 C 
ATOM     17  C           0     134.976 131.393 142.382  0.00  0.00     0.093 C 
ATOM     18  C           0     135.849 132.652 142.145  0.00  0.00     0.209 C 
ATOM     19  H           0     136.420 134.006 146.968  0.00  0.00     0.178 HD
ATOM     20  H           0     136.679 136.487 144.340  0.00  0.00     0.178 HD
ATOM     21  H           0     133.634 134.348 142.707  0.00  0.00     0.180 HD
ENDROOT
BRANCH  18  22
ATOM     22  O           0     135.463 133.304 140.933  0.00  0.00    -0.362 OA
ATOM     23  H           0     135.769 134.219 140.998  0.00  0.00     0.213 HD
ENDBRANCH  18  22
BRANCH  18  24
ATOM     24  O           0     137.232 132.298 142.103  0.00  0.00    -0.362 OA
ATOM     25  H           0     137.734 133.122 142.183  0.00  0.00     0.213 HD
ENDBRANCH  18  24
BRANCH   6  26
ATOM     26  C           0     138.307 132.755 144.843  0.00  0.00     0.192 C 
BRANCH  26  27
ATOM     27  O           0     139.219 133.044 143.781  0.00  0.00    -0.399 OA
ATOM     28  H           0     139.945 133.552 144.166  0.00  0.00     0.209 HD
ENDBRANCH  26  27
ENDBRANCH   6  26
TORSDOF 4
ENDMDL
MODEL 3
REMARK VINA RESULT:      -6.5      2.068      3.537
REMARK  4 active torsions:
REMARK  status: ('A' for Active; 'I' for Inactive)
REMARK    1  A    between atoms: C_6  and  C_7 
REMARK    2  A    between atoms: C_7  and  O_8 
REMARK    3  A    between atoms: C_20  and  O_21 
REMARK    4  A    between atoms: C_20  and  O_22 
ROOT
ATOM      1  N           0     135.872 134.625 146.842  0.00  0.00    -0.235 N 
ATOM      2  H           0     136.201 134.564 147.752  0.00  0.00     0.174 HD
ATOM      3  H           0     135.071 135.137 146.649  0.00  0.00     0.174 HD
ATOM      4  C           0     136.508 134.022 145.878  0.00  0.00     0.672 C 
ATOM      5  N           0     137.657 133.283 146.101  0.00  0.00    -0.218 N 
ATOM      6  C           0     137.955 132.176 145.197  0.00  0.00     0.150 C 
ATOM      7  C           0     137.903 132.583 143.738  0.00  0.00     0.180 C 
ATOM      8  N           0     139.132 133.330 143.398  0.00  0.00    -0.216 N 
ATOM      9  C           0     138.773 134.362 142.565  0.00  0.00     0.670 C 
ATOM     10  N           0     139.603 134.998 141.787  0.00  0.00    -0.235 N 
ATOM     11  H           0     140.540 134.750 141.771  0.00  0.00     0.174 HD
ATOM     12  H           0     139.282 135.719 141.222  0.00  0.00     0.174 HD
ATOM     13  C           0     136.781 133.553 143.403  0.00  0.00     0.217 C 
ATOM     14  N           0     137.432 134.641 142.655  0.00  0.00    -0.191 N 
ATOM     15  N           0     136.079 134.073 144.577  0.00  0.00    -0.183 N 
ATOM     16  C           0     134.801 134.600 144.065  0.00  0.00     0.150 C 
ATOM     17  C           0     134.378 133.589 142.973  0.00  0.00     0.093 C 
ATOM     18  C           0     135.695 132.898 142.534  0.00  0.00     0.209 C 
ATOM     19  H           0     138.249 133.497 146.840  0.00  0.00     0.178 HD
ATOM     20  H           0     140.029 133.129 143.705  0.00  0.00     0.178 HD
ATOM     21  H           0     136.989 135.421 142.285  0.00  0.00     0.180 HD
ENDROOT
BRANCH  18  22
ATOM     22  O           0     135.946 133.139 141.148  0.00  0.00    -0.362 OA
ATOM     23  H           0     136.283 134.043 141.078  0.00  0.00     0.213 HD
ENDBRANCH  18  22
BRANCH  18  24
ATOM     24  O           0     135.631 131.494 142.793  0.00  0.00    -0.362 OA
ATOM     25  H           0     135.938 131.048 141.991  0.00  0.00     0.213 HD
ENDBRANCH  18  24
BRANCH   6  26
ATOM     26  C           0     136.938 131.058 145.433  0.00  0.00     0.192 C 
BRANCH  26  27
ATOM     27  O           0     137.471 130.117 146.367  0.00  0.00    -0.399 OA
ATOM     28  H           0     137.036 130.285 147.213  0.00  0.00     0.209 HD
ENDBRANCH  26  27
ENDBRANCH   6  26
TORSDOF 4
ENDMDL
MODEL 4
REMARK VINA RESULT:      -6.2      1.999      2.306
REMARK  4 active torsions:
REMARK  status: ('A' for Active; 'I' for Inactive)
REMARK    1  A    between atoms: C_6  and  C_7 
REMARK    2  A    between atoms: C_7  and  O_8 
REMARK    3  A    between atoms: C_20  and  O_21 
REMARK    4  A    between atoms: C_20  and  O_22 
ROOT
ATOM      1  N           0     135.929 134.756 147.588  0.00  0.00    -0.235 N 
ATOM      2  H           0     136.319 135.642 147.519  0.00  0.00     0.174 HD
ATOM      3  H           0     135.359 134.535 148.342  0.00  0.00     0.174 HD
ATOM      4  C           0     136.167 133.866 146.667  0.00  0.00     0.672 C 
ATOM      5  N           0     136.968 134.135 145.571  0.00  0.00    -0.218 N 
ATOM      6  C           0     137.689 133.027 144.951  0.00  0.00     0.150 C 
ATOM      7  C           0     136.789 131.851 144.631  0.00  0.00     0.180 C 
ATOM      8  N           0     136.004 132.157 143.416  0.00  0.00    -0.216 N 
ATOM      9  C           0     134.734 131.671 143.610  0.00  0.00     0.670 C 
ATOM     10  N           0     133.886 131.434 142.649  0.00  0.00    -0.235 N 
ATOM     11  H           0     134.138 131.600 141.727  0.00  0.00     0.174 HD
ATOM     12  H           0     133.003 131.089 142.855  0.00  0.00     0.174 HD
ATOM     13  C           0     135.732 131.570 145.688  0.00  0.00     0.217 C 
ATOM     14  N           0     134.468 131.467 144.941  0.00  0.00    -0.191 N 
ATOM     15  N           0     135.645 132.600 146.724  0.00  0.00    -0.183 N 
ATOM     16  C           0     134.935 131.963 147.848  0.00  0.00     0.150 C 
ATOM     17  C           0     135.479 130.515 147.874  0.00  0.00     0.093 C 
ATOM     18  C           0     136.005 130.256 146.439  0.00  0.00     0.209 C 
ATOM     19  H           0     137.048 135.038 145.224  0.00  0.00     0.178 HD
ATOM     20  H           0     136.326 132.617 142.626  0.00  0.00     0.178 HD
ATOM     21  H           0     133.596 131.282 145.323  0.00  0.00     0.180 HD
ENDROOT
BRANCH  18  22
ATOM     22  O           0     135.294 129.174 145.835  0.00  0.00    -0.362 OA
ATOM     23  H           0     134.614 129.567 145.270  0.00  0.00     0.213 HD
ENDBRANCH  18  22
BRANCH  18  24
ATOM     24  O           0     137.406 129.981 146.464  0.00  0.00    -0.362 OA
ATOM     25  H           0     137.842 130.775 146.805  0.00  0.00     0.213 HD
ENDBRANCH  18  24
BRANCH   6  26
ATOM     26  C           0     138.789 132.559 145.906  0.00  0.00     0.192 C 
BRANCH  26  27
ATOM     27  O           0     139.450 131.420 145.351  0.00  0.00    -0.399 OA
ATOM     28  H           0     140.392 131.632 145.316  0.00  0.00     0.209 HD
ENDBRANCH  26  27
ENDBRANCH   6  26
TORSDOF 4
ENDMDL
MODEL 5
REMARK VINA RESULT:      -6.0      9.399     10.996
REMARK  4 active torsions:
REMARK  status: ('A' for Active; 'I' for Inactive)
REMARK    1  A    between atoms: C_6  and  C_7 
REMARK    2  A    between atoms: C_7  and  O_8 
REMARK    3  A    between atoms: C_20  and  O_21 
REMARK    4  A    between atoms: C_20  and  O_22 
ROOT
ATOM      1  N           0     134.447 132.901 132.618  0.00  0.00    -0.235 N 
ATOM      2  H           0     134.488 132.148 132.008  0.00  0.00     0.174 HD
ATOM      3  H           0     135.257 133.382 132.850  0.00  0.00     0.174 HD
ATOM      4  C           0     133.304 133.269 133.123  0.00  0.00     0.672 C 
ATOM      5  N           0     132.120 132.619 132.820  0.00  0.00    -0.218 N 
ATOM      6  C           0     131.050 132.629 133.813  0.00  0.00     0.150 C 
ATOM      7  C           0     130.735 134.023 134.318  0.00  0.00     0.180 C 
ATOM      8  N           0     129.939 134.740 133.299  0.00  0.00    -0.216 N 
ATOM      9  C           0     130.384 136.039 133.265  0.00  0.00     0.670 C 
ATOM     10  N           0     129.703 137.034 132.769  0.00  0.00    -0.235 N 
ATOM     11  H           0     128.822 136.879 132.394  0.00  0.00     0.174 HD
ATOM     12  H           0     130.076 137.929 132.776  0.00  0.00     0.174 HD
ATOM     13  C           0     131.958 134.905 134.514  0.00  0.00     0.217 C 
ATOM     14  N           0     131.636 136.161 133.816  0.00  0.00    -0.191 N 
ATOM     15  N           0     133.196 134.322 133.994  0.00  0.00    -0.183 N 
ATOM     16  C           0     134.285 135.067 134.653  0.00  0.00     0.150 C 
ATOM     17  C           0     133.776 135.294 136.096  0.00  0.00     0.093 C 
ATOM     18  C           0     132.232 135.188 136.000  0.00  0.00     0.209 C 
ATOM     19  H           0     132.005 132.168 131.969  0.00  0.00     0.178 HD
ATOM     20  H           0     129.232 134.363 132.755  0.00  0.00     0.178 HD
ATOM     21  H           0     132.207 136.942 133.758  0.00  0.00     0.180 HD
ENDROOT
BRANCH  18  22
ATOM     22  O           0     131.622 136.418 136.399  0.00  0.00    -0.362 OA
ATOM     23  H           0     130.830 136.187 136.903  0.00  0.00     0.213 HD
ENDBRANCH  18  22
BRANCH  18  24
ATOM     24  O           0     131.755 134.110 136.807  0.00  0.00    -0.362 OA
ATOM     25  H           0     131.415 134.501 137.624  0.00  0.00     0.213 HD
ENDBRANCH  18  24
BRANCH   6  26
ATOM     26  C           0     131.470 131.759 135.000  0.00  0.00     0.192 C 
BRANCH  26  27
ATOM     27  O           0     130.354 131.574 135.874  0.00  0.00    -0.399 OA
ATOM     28  H           0     129.803 130.884 135.482  0.00  0.00     0.209 HD
ENDBRANCH  26  27
ENDBRANCH   6  26
TORSDOF 4
ENDMDL
MODEL 6
REMARK VINA RESULT:      -6.0      2.861      4.422
REMARK  4 active torsions:
REMARK  status: ('A' for Active; 'I' for Inactive)
REMARK    1  A    between atoms: C_6  and  C_7 
REMARK    2  A    between atoms: C_7  and  O_8 
REMARK    3  A    between atoms: C_20  and  O_21 
REMARK    4  A    between atoms: C_20  and  O_22 
ROOT
ATOM      1  N           0     135.153 130.555 143.299  0.00  0.00    -0.235 N 
ATOM      2  H           0     134.994 130.403 142.354  0.00  0.00     0.174 HD
ATOM      3  H           0     134.687 130.020 143.961  0.00  0.00     0.174 HD
ATOM      4  C           0     135.994 131.474 143.679  0.00  0.00     0.672 C 
ATOM      5  N           0     136.687 132.260 142.774  0.00  0.00    -0.218 N 
ATOM      6  C           0     137.089 133.601 143.187  0.00  0.00     0.150 C 
ATOM      7  C           0     137.823 133.608 144.513  0.00  0.00     0.180 C 
ATOM      8  N           0     139.210 133.143 144.304  0.00  0.00    -0.216 N 
ATOM      9  C           0     139.544 132.344 145.370  0.00  0.00     0.670 C 
ATOM     10  N           0     140.768 132.055 145.713  0.00  0.00    -0.235 N 
ATOM     11  H           0     141.512 132.413 145.204  0.00  0.00     0.174 HD
ATOM     12  H           0     140.935 131.483 146.479  0.00  0.00     0.174 HD
ATOM     13  C           0     137.262 132.637 145.540  0.00  0.00     0.217 C 
ATOM     14  N           0     138.430 131.886 146.028  0.00  0.00    -0.191 N 
ATOM     15  N           0     136.246 131.731 145.002  0.00  0.00    -0.183 N 
ATOM     16  C           0     135.526 131.209 146.179  0.00  0.00     0.150 C 
ATOM     17  C           0     135.427 132.421 147.135  0.00  0.00     0.093 C 
ATOM     18  C           0     136.581 133.365 146.710  0.00  0.00     0.209 C 
ATOM     19  H           0     136.899 131.927 141.888  0.00  0.00     0.178 HD
ATOM     20  H           0     139.781 133.362 143.552  0.00  0.00     0.178 HD
ATOM     21  H           0     138.417 131.190 146.703  0.00  0.00     0.180 HD
ENDROOT
BRANCH  18  22
ATOM     22  O           0     137.498 133.548 147.791  0.00  0.00    -0.362 OA
ATOM     23  H           0     138.361 133.239 147.481  0.00  0.00     0.213 HD
ENDBRANCH  18  22
BRANCH  18  24
ATOM     24  O           0     136.062 134.624 146.278  0.00  0.00    -0.362 OA
ATOM     25  H           0     135.099 134.570 146.355  0.00  0.00     0.213 HD
ENDBRANCH  18  24
BRANCH   6  26
ATOM     26  C           0     135.839 134.475 143.311  0.00  0.00     0.192 C 
BRANCH  26  27
ATOM     27  O           0     136.223 135.814 143.631  0.00  0.00    -0.399 OA
ATOM     28  H           0     136.953 135.753 144.261  0.00  0.00     0.209 HD
ENDBRANCH  26  27
ENDBRANCH   6  26
TORSDOF 4
ENDMDL
MODEL 7
REMARK VINA RESULT:      -5.8      9.473     11.271
REMARK  4 active torsions:
REMARK  status: ('A' for Active; 'I' for Inactive)
REMARK    1  A    between atoms: C_6  and  C_7 
REMARK    2  A    between atoms: C_7  and  O_8 
REMARK    3  A    between atoms: C_20  and  O_21 
REMARK    4  A    between atoms: C_20  and  O_22 
ROOT
ATOM      1  N           0     130.366 133.305 131.179  0.00  0.00    -0.235 N 
ATOM      2  H           0     129.522 132.860 131.004  0.00  0.00     0.174 HD
ATOM      3  H           0     130.856 133.720 130.452  0.00  0.00     0.174 HD
ATOM      4  C           0     130.840 133.349 132.392  0.00  0.00     0.672 C 
ATOM      5  N           0     130.176 132.777 133.464  0.00  0.00    -0.218 N 
ATOM      6  C           0     130.968 132.307 134.597  0.00  0.00     0.150 C 
ATOM      7  C           0     131.930 133.358 135.113  0.00  0.00     0.180 C 
ATOM      8  N           0     131.183 134.351 135.912  0.00  0.00    -0.216 N 
ATOM      9  C           0     131.702 135.590 135.625  0.00  0.00     0.670 C 
ATOM     10  N           0     131.552 136.640 136.383  0.00  0.00    -0.235 N 
ATOM     11  H           0     131.049 136.575 137.209  0.00  0.00     0.174 HD
ATOM     12  H           0     131.946 137.487 136.121  0.00  0.00     0.174 HD
ATOM     13  C           0     132.589 134.188 134.022  0.00  0.00     0.217 C 
ATOM     14  N           0     132.396 135.586 134.441  0.00  0.00    -0.191 N 
ATOM     15  N           0     132.030 133.960 132.689  0.00  0.00    -0.183 N 
ATOM     16  C           0     133.045 134.471 131.749  0.00  0.00     0.150 C 
ATOM     17  C           0     134.396 134.067 132.385  0.00  0.00     0.093 C 
ATOM     18  C           0     134.090 133.882 133.894  0.00  0.00     0.209 C 
ATOM     19  H           0     129.210 132.691 133.461  0.00  0.00     0.178 HD
ATOM     20  H           0     130.458 134.164 136.528  0.00  0.00     0.178 HD
ATOM     21  H           0     132.709 136.370 133.965  0.00  0.00     0.180 HD
ENDROOT
BRANCH  18  22
ATOM     22  O           0     134.859 134.800 134.674  0.00  0.00    -0.362 OA
ATOM     23  H           0     135.216 134.302 135.422  0.00  0.00     0.213 HD
ENDBRANCH  18  22
BRANCH  18  24
ATOM     24  O           0     134.360 132.538 134.296  0.00  0.00    -0.362 OA
ATOM     25  H           0     135.303 132.493 134.508  0.00  0.00     0.213 HD
ENDBRANCH  18  24
BRANCH   6  26
ATOM     26  C           0     131.768 131.077 134.164  0.00  0.00     0.192 C 
BRANCH  26  27
ATOM     27  O           0     132.507 130.572 135.278  0.00  0.00    -0.399 OA
ATOM     28  H           0     131.929 130.637 136.050  0.00  0.00     0.209 HD
ENDBRANCH  26  27
ENDBRANCH   6  26
TORSDOF 4
ENDMDL
MODEL 8
REMARK VINA RESULT:      -5.7      2.483      3.550
REMARK  4 active torsions:
REMARK  status: ('A' for Active; 'I' for Inactive)
REMARK    1  A    between atoms: C_6  and  C_7 
REMARK    2  A    between atoms: C_7  and  O_8 
REMARK    3  A    between atoms: C_20  and  O_21 
REMARK    4  A    between atoms: C_20  and  O_22 
ROOT
ATOM      1  N           0     136.271 135.153 147.921  0.00  0.00    -0.235 N 
ATOM      2  H           0     135.665 135.906 147.842  0.00  0.00     0.174 HD
ATOM      3  H           0     136.850 135.076 148.695  0.00  0.00     0.174 HD
ATOM      4  C           0     136.305 134.243 146.989  0.00  0.00     0.672 C 
ATOM      5  N           0     135.495 134.305 145.868  0.00  0.00    -0.218 N 
ATOM      6  C           0     135.972 133.686 144.634  0.00  0.00     0.150 C 
ATOM      7  C           0     136.429 132.256 144.838  0.00  0.00     0.180 C 
ATOM      8  N           0     135.245 131.378 144.945  0.00  0.00    -0.216 N 
ATOM      9  C           0     135.507 130.444 145.917  0.00  0.00     0.670 C 
ATOM     10  N           0     134.869 129.314 146.038  0.00  0.00    -0.235 N 
ATOM     11  H           0     134.160 129.087 145.417  0.00  0.00     0.174 HD
ATOM     12  H           0     135.106 128.697 146.749  0.00  0.00     0.174 HD
ATOM     13  C           0     137.177 132.021 146.140  0.00  0.00     0.217 C 
ATOM     14  N           0     136.523 130.850 146.747  0.00  0.00    -0.191 N 
ATOM     15  N           0     137.149 133.165 147.052  0.00  0.00    -0.183 N 
ATOM     16  C           0     138.253 132.934 148.002  0.00  0.00     0.150 C 
ATOM     17  C           0     139.384 132.331 147.136  0.00  0.00     0.093 C 
ATOM     18  C           0     138.667 131.723 145.903  0.00  0.00     0.209 C 
ATOM     19  H           0     134.633 134.749 145.902  0.00  0.00     0.178 HD
ATOM     20  H           0     134.430 131.447 144.423  0.00  0.00     0.178 HD
ATOM     21  H           0     136.769 130.433 147.587  0.00  0.00     0.180 HD
ENDROOT
BRANCH  18  22
ATOM     22  O           0     138.895 130.314 145.838  0.00  0.00    -0.362 OA
ATOM     23  H           0     138.553 129.938 146.661  0.00  0.00     0.213 HD
ENDBRANCH  18  22
BRANCH  18  24
ATOM     24  O           0     139.115 132.357 144.704  0.00  0.00    -0.362 OA
ATOM     25  H           0     138.554 133.135 144.572  0.00  0.00     0.213 HD
ENDBRANCH  18  24
BRANCH   6  26
ATOM     26  C           0     137.144 134.506 144.092  0.00  0.00     0.192 C 
BRANCH  26  27
ATOM     27  O           0     136.684 135.803 143.710  0.00  0.00    -0.399 OA
ATOM     28  H           0     135.886 135.672 143.181  0.00  0.00     0.209 HD
ENDBRANCH  26  27
ENDBRANCH   6  26
TORSDOF 4
ENDMDL
MODEL 9
REMARK VINA RESULT:      -5.7      3.415      5.027
REMARK  4 active torsions:
REMARK  status: ('A' for Active; 'I' for Inactive)
REMARK    1  A    between atoms: C_6  and  C_7 
REMARK    2  A    between atoms: C_7  and  O_8 
REMARK    3  A    between atoms: C_20  and  O_21 
REMARK    4  A    between atoms: C_20  and  O_22 
ROOT
ATOM      1  N           0     138.925 129.372 147.861  0.00  0.00    -0.235 N 
ATOM      2  H           0     138.979 128.417 148.023  0.00  0.00     0.174 HD
ATOM      3  H           0     139.667 129.948 148.106  0.00  0.00     0.174 HD
ATOM      4  C           0     137.859 129.881 147.312  0.00  0.00     0.672 C 
ATOM      5  N           0     136.777 129.101 146.940  0.00  0.00    -0.218 N 
ATOM      6  C           0     135.452 129.714 146.934  0.00  0.00     0.150 C 
ATOM      7  C           0     135.414 131.016 146.159  0.00  0.00     0.180 C 
ATOM      8  N           0     135.400 130.720 144.711  0.00  0.00    -0.216 N 
ATOM      9  C           0     136.206 131.644 144.091  0.00  0.00     0.670 C 
ATOM     10  N           0     136.155 131.923 142.819  0.00  0.00    -0.235 N 
ATOM     11  H           0     135.518 131.467 142.247  0.00  0.00     0.174 HD
ATOM     12  H           0     136.753 132.589 142.444  0.00  0.00     0.174 HD
ATOM     13  C           0     136.649 131.885 146.343  0.00  0.00     0.217 C 
ATOM     14  N           0     137.071 132.236 144.977  0.00  0.00    -0.191 N 
ATOM     15  N           0     137.733 131.224 147.071  0.00  0.00    -0.183 N 
ATOM     16  C           0     138.613 132.314 147.532  0.00  0.00     0.150 C 
ATOM     17  C           0     137.642 133.449 147.933  0.00  0.00     0.093 C 
ATOM     18  C           0     136.340 133.163 147.140  0.00  0.00     0.209 C 
ATOM     19  H           0     136.898 128.172 146.691  0.00  0.00     0.178 HD
ATOM     20  H           0     134.911 130.004 144.277  0.00  0.00     0.178 HD
ATOM     21  H           0     137.829 132.794 144.742  0.00  0.00     0.180 HD
ENDROOT
BRANCH  18  22
ATOM     22  O           0     136.046 134.248 146.258  0.00  0.00    -0.362 OA
ATOM     23  H           0     136.784 134.869 146.322  0.00  0.00     0.213 HD
ENDBRANCH  18  22
BRANCH  18  24
ATOM     24  O           0     135.250 132.938 148.036  0.00  0.00    -0.362 OA
ATOM     25  H           0     134.727 132.214 147.664  0.00  0.00     0.213 HD
ENDBRANCH  18  24
BRANCH   6  26
ATOM     26  C           0     135.027 129.988 148.378  0.00  0.00     0.192 C 
BRANCH  26  27
ATOM     27  O           0     133.721 130.567 148.390  0.00  0.00    -0.399 OA
ATOM     28  H           0     133.562 130.880 149.290  0.00  0.00     0.209 HD
ENDBRANCH  26  27
ENDBRANCH   6  26
TORSDOF 4
ENDMDL
