# created with PyMOL 2.3.4
@<TRIPOS>MOLECULE
ligand_out_0001
28 30 1                 
SMALL
USER_CHARGES
@<TRIPOS>ATOM
1	   N	135.979	134.742	146.756	N.3	1	UNK0	-0.235	
2	   N	136.468	135.054	144.475	N.3	1	UNK0	-0.218	
3	   N	134.985	133.967	142.004	N.3	1	UNK0	-0.216	
4	   N	132.742	133.382	141.533	N.3	1	UNK0	-0.235	
5	   N	133.891	132.591	143.443	N.3	1	UNK0	-0.191	
6	   N	135.485	133.066	145.198	N.3	1	UNK0	-0.183	
7	   C	135.974	134.303	145.529	C.3	1	UNK0	0.672	
8	   C	137.007	134.349	143.316	C.3	1	UNK0	0.150	
9	   C	136.055	133.301	142.775	C.3	1	UNK0	0.180	
10	   C	133.807	133.317	142.281	C.3	1	UNK0	0.670	
11	   C	135.305	132.528	143.849	C.3	1	UNK0	0.217	
12	   C	135.087	131.977	146.109	C.3	1	UNK0	0.150	
13	   C	135.621	130.694	145.429	C.3	1	UNK0	0.093	
14	   C	135.762	131.062	143.929	C.3	1	UNK0	0.209	
15	   C	138.315	133.665	143.718	C.2	1	UNK0	0.192	
16	   O	134.920	130.228	143.130	O.2	1	UNK0	-0.362	
17	   O	137.123	130.943	143.513	O.2	1	UNK0	-0.362	
18	   O	138.912	133.062	142.568	O.2	1	UNK0	-0.399	
19	   H	136.338	135.621	146.955	 H	1	UNK0	0.174	
20	   H	135.622	134.191	147.470	 H	1	UNK0	0.174	
21	   H	132.749	133.914	140.722	 H	1	UNK0	0.174	
22	   H	131.941	132.896	141.787	 H	1	UNK0	0.174	
23	   H	136.455	136.023	144.508	 H	1	UNK0	0.178	
24	   H	135.093	134.726	141.410	 H	1	UNK0	0.178	
25	   H	133.146	132.185	143.913	 H	1	UNK0	0.180	
26	   H	134.014	130.542	143.257	 H	1	UNK0	0.213	
27	   H	137.539	130.294	144.098	 H	1	UNK0	0.213	
28	   H	139.162	132.164	142.821	 H	1	UNK0	0.209	
@<TRIPOS>BOND
1 1 7 1
2 1 19 1
3 1 20 1
4 2 8 1
5 2 23 1
6 3 10 1
7 3 24 1
8 4 21 1
9 4 22 1
10 5 25 1
11 6 12 1
12 2 7 1
13 6 7 1
14 8 9 1
15 8 15 1
16 3 9 1
17 9 11 1
18 4 10 1
19 5 10 1
20 5 11 1
21 6 11 1
22 11 14 1
23 12 13 1
24 13 14 1
25 14 16 2
26 14 17 2
27 15 18 2
28 16 26 1
29 17 27 1
30 18 28 1
@<TRIPOS>SUBSTRUCTURE
1	UNK0	1	GROUP	1 ****	UNK
