REMARK  9 active torsions:
REMARK  status: ('A' for Active; 'I' for Inactive)
REMARK    1  A    between atoms: C_6  and  C_7 
REMARK    2  A    between atoms: C_7  and  O_8 
REMARK    3  A    between atoms: O_8  and  C_9 
REMARK       I    between atoms: C_9  and  N_10 
REMARK    4  A    between atoms: C_21  and  C_22 
REMARK    5  A    between atoms: C_22  and  C_23 
REMARK    6  A    between atoms: C_25  and  O_26 
REMARK    7  A    between atoms: O_26  and  S_27 
REMARK    8  A    between atoms: C_31  and  O_32 
REMARK    9  A    between atoms: C_31  and  O_33 
ROOT
ATOM      1  N           0      -1.493  -1.216   2.680  0.00  0.00    -0.235 N 
ATOM      2  H           0      -2.335  -1.400   3.126  0.00  0.00     0.174 HD
ATOM      3  H           0      -0.689  -1.068   3.203  0.00  0.00     0.174 HD
ATOM      4  C           0      -1.441  -1.174   1.379  0.00  0.00     0.672 C 
ATOM      5  N           0      -2.558  -1.384   0.590  0.00  0.00    -0.218 N 
ATOM      6  C           0      -2.619  -0.733  -0.715  0.00  0.00     0.151 C 
ATOM      7  C           0      -1.374  -0.977  -1.546  0.00  0.00     0.180 C 
ATOM      8  N           0      -1.434  -2.339  -2.120  0.00  0.00    -0.216 N 
ATOM      9  C           0      -0.170  -2.873  -2.054  0.00  0.00     0.670 C 
ATOM     10  N           0       0.237  -3.883  -2.770  0.00  0.00    -0.235 N 
ATOM     11  H           0      -0.368  -4.306  -3.399  0.00  0.00     0.174 HD
ATOM     12  H           0       1.145  -4.211  -2.675  0.00  0.00     0.174 HD
ATOM     13  C           0      -0.083  -0.975  -0.747  0.00  0.00     0.220 C 
ATOM     14  N           0       0.612  -2.211  -1.140  0.00  0.00    -0.191 N 
ATOM     15  N           0      -0.274  -0.911   0.703  0.00  0.00    -0.176 N 
ATOM     16  C           0       1.002  -0.457   1.275  0.00  0.00     0.141 C 
ATOM     17  C           0       1.732   0.328   0.165  0.00  0.00     0.235 C 
ATOM     18  C           0       0.795   0.250  -1.072  0.00  0.00     0.239 C 
ATOM     19  H           0      -3.283  -1.951   0.897  0.00  0.00     0.178 HD
ATOM     20  H           0      -2.222  -2.777  -2.477  0.00  0.00     0.178 HD
ATOM     21  H           0       1.476  -2.506  -0.812  0.00  0.00     0.180 HD
ENDROOT
BRANCH   6  22
ATOM     22  C           0      -2.785   0.774  -0.509  0.00  0.00     0.208 C 
BRANCH  22  23
ATOM     23  O           0      -4.067   1.038   0.120  0.00  0.00    -0.302 OA
BRANCH  23  24
ATOM     24  C           0      -4.431   2.304   0.400  0.00  0.00     0.358 C 
ATOM     25  N           0      -5.621   2.549   0.984  0.00  0.00    -0.346 N 
ATOM     26  H           0      -6.214   1.814   1.202  0.00  0.00     0.161 HD
ATOM     27  H           0      -5.883   3.461   1.185  0.00  0.00     0.161 HD
ATOM     28  O           0      -3.687   3.225   0.126  0.00  0.00    -0.239 OA
ENDBRANCH  23  24
ENDBRANCH  22  23
ENDBRANCH   6  22
BRANCH  18  29
ATOM     29  O           0       1.550   0.040  -2.267  0.00  0.00    -0.360 OA
ATOM     30  H           0       2.137   0.803  -2.365  0.00  0.00     0.213 HD
ENDBRANCH  18  29
BRANCH  18  31
ATOM     31  O           0      -0.006   1.429  -1.177  0.00  0.00    -0.360 OA
ATOM     32  H           0       0.603   2.171  -1.290  0.00  0.00     0.213 HD
ENDBRANCH  18  31
BRANCH  16  33
ATOM     33  C           0       1.842  -1.662   1.704  0.00  0.00     0.028 C 
BRANCH  33  34
ATOM     34  C           0       1.134  -2.397   2.843  0.00  0.00    -0.002 C 
ATOM     35  C           0       1.974  -3.602   3.272  0.00  0.00     0.005 C 
ENDBRANCH  33  34
ENDBRANCH  16  33
BRANCH  17  36
ATOM     36  O           0       1.924   1.687   0.562  0.00  0.00    -0.244 OA
BRANCH  36  37
ATOM     37  S           0       3.262   2.129  -0.014  0.00  0.00     0.252 S 
ATOM     38  O           0       3.047   2.338  -1.438  0.00  0.00    -0.572 OA
ATOM     39  O           0       3.621   3.358   0.677  0.00  0.00    -0.572 OA
ATOM     40  O           0       4.201   1.051   0.251  0.00  0.00    -0.572 OA
ENDBRANCH  36  37
ENDBRANCH  17  36
TORSDOF 9
