REMARK  6 active torsions:
REMARK  status: ('A' for Active; 'I' for Inactive)
REMARK    1  A    between atoms: C_6  and  C_7 
REMARK    2  A    between atoms: C_7  and  O_8 
REMARK    3  A    between atoms: O_8  and  C_9 
REMARK       I    between atoms: C_9  and  N_10 
REMARK    4  A    between atoms: N_10  and  S_11 
REMARK    5  A    between atoms: C_27  and  O_28 
REMARK    6  A    between atoms: C_27  and  O_29 
ROOT
ATOM      1  N           0      -1.036  -0.628  -3.158  0.00  0.00    -0.235 N 
ATOM      2  H           0      -0.430  -1.299  -3.511  0.00  0.00     0.174 HD
ATOM      3  H           0      -1.380   0.069  -3.739  0.00  0.00     0.174 HD
ATOM      4  C           0      -1.394  -0.668  -1.905  0.00  0.00     0.672 C 
ATOM      5  N           0      -0.937  -1.646  -1.039  0.00  0.00    -0.218 N 
ATOM      6  C           0      -0.835  -1.319   0.381  0.00  0.00     0.151 C 
ATOM      7  C           0      -2.114  -0.723   0.936  0.00  0.00     0.180 C 
ATOM      8  N           0      -3.103  -1.802   1.147  0.00  0.00    -0.216 N 
ATOM      9  C           0      -4.332  -1.318   0.772  0.00  0.00     0.670 C 
ATOM     10  N           0      -5.468  -1.835   1.146  0.00  0.00    -0.235 N 
ATOM     11  H           0      -5.479  -2.613   1.725  0.00  0.00     0.174 HD
ATOM     12  H           0      -6.302  -1.443   0.845  0.00  0.00     0.174 HD
ATOM     13  C           0      -2.817   0.235  -0.013  0.00  0.00     0.217 C 
ATOM     14  N           0      -4.216  -0.220  -0.045  0.00  0.00    -0.191 N 
ATOM     15  N           0      -2.243   0.259  -1.360  0.00  0.00    -0.183 N 
ATOM     16  C           0      -2.727   1.512  -1.967  0.00  0.00     0.150 C 
ATOM     17  C           0      -2.689   2.539  -0.810  0.00  0.00     0.093 C 
ATOM     18  C           0      -2.751   1.689   0.484  0.00  0.00     0.209 C 
ATOM     19  H           0      -0.690  -2.525  -1.366  0.00  0.00     0.178 HD
ATOM     20  H           0      -2.917  -2.691   1.487  0.00  0.00     0.178 HD
ATOM     21  H           0      -4.935   0.187  -0.553  0.00  0.00     0.180 HD
ENDROOT
BRANCH   6  22
ATOM     22  C           0       0.302  -0.315   0.577  0.00  0.00     0.208 C 
BRANCH  22  23
ATOM     23  O           0       1.565  -0.939   0.228  0.00  0.00    -0.301 OA
BRANCH  23  24
ATOM     24  C           0       2.711  -0.240   0.324  0.00  0.00     0.376 C 
ATOM     25  N           0       3.884  -0.820   0.000  0.00  0.00    -0.211 N 
ATOM     26  H           0       3.902  -1.741  -0.302  0.00  0.00     0.186 HD
ATOM     27  O           0       2.689   0.915   0.703  0.00  0.00    -0.237 OA
BRANCH  25  28
ATOM     28  S           0       5.294   0.041   0.118  0.00  0.00     0.213 S 
ATOM     29  O           0       5.109   1.244  -0.678  0.00  0.00    -0.578 OA
ATOM     30  O           0       5.479   0.335   1.531  0.00  0.00    -0.578 OA
ATOM     31  O           0       6.344  -0.816  -0.410  0.00  0.00    -0.578 OA
ENDBRANCH  25  28
ENDBRANCH  23  24
ENDBRANCH  22  23
ENDBRANCH   6  22
BRANCH  18  32
ATOM     32  O           0      -3.919   2.016   1.239  0.00  0.00    -0.362 OA
ATOM     33  H           0      -3.846   2.950   1.477  0.00  0.00     0.213 HD
ENDBRANCH  18  32
BRANCH  18  34
ATOM     34  O           0      -1.575   1.892   1.271  0.00  0.00    -0.362 OA
ATOM     35  H           0      -1.555   2.830   1.507  0.00  0.00     0.213 HD
ENDBRANCH  18  34
TORSDOF 6
