REMARK  7 active torsions:
REMARK  status: ('A' for Active; 'I' for Inactive)
REMARK    1  A    between atoms: C_6  and  C_7 
REMARK    2  A    between atoms: C_7  and  O_8 
REMARK    3  A    between atoms: O_8  and  C_9 
REMARK       I    between atoms: C_9  and  N_10 
REMARK    4  A    between atoms: C_23  and  O_24 
REMARK    5  A    between atoms: O_24  and  S_25 
REMARK    6  A    between atoms: C_29  and  O_30 
REMARK    7  A    between atoms: C_29  and  O_31 
ROOT
ATOM      1  N           0      -1.179   0.223   3.046  0.00  0.00    -0.235 N 
ATOM      2  H           0      -1.974   0.371   3.582  0.00  0.00     0.174 HD
ATOM      3  H           0      -0.312   0.503   3.378  0.00  0.00     0.174 HD
ATOM      4  C           0      -1.276  -0.357   1.883  0.00  0.00     0.672 C 
ATOM      5  N           0      -2.489  -0.779   1.370  0.00  0.00    -0.218 N 
ATOM      6  C           0      -2.655  -0.815  -0.080  0.00  0.00     0.151 C 
ATOM      7  C           0      -1.536  -1.567  -0.775  0.00  0.00     0.180 C 
ATOM      8  N           0      -1.759  -3.021  -0.621  0.00  0.00    -0.216 N 
ATOM      9  C           0      -0.537  -3.606  -0.394  0.00  0.00     0.670 C 
ATOM     10  N           0      -0.289  -4.874  -0.565  0.00  0.00    -0.235 N 
ATOM     11  H           0      -0.992  -5.468  -0.871  0.00  0.00     0.174 HD
ATOM     12  H           0       0.598  -5.223  -0.386  0.00  0.00     0.174 HD
ATOM     13  C           0      -0.163  -1.342  -0.165  0.00  0.00     0.220 C 
ATOM     14  N           0       0.391  -2.690   0.036  0.00  0.00    -0.191 N 
ATOM     15  N           0      -0.180  -0.583   1.086  0.00  0.00    -0.176 N 
ATOM     16  C           0       1.183  -0.067   1.282  0.00  0.00     0.137 C 
ATOM     17  C           0       1.979  -1.019   2.177  0.00  0.00     0.036 C 
ATOM     18  C           0       1.833   0.012  -0.116  0.00  0.00     0.234 C 
ATOM     19  C           0       0.756  -0.526  -1.097  0.00  0.00     0.239 C 
ATOM     20  H           0      -3.212  -1.045   1.960  0.00  0.00     0.178 HD
ATOM     21  H           0      -2.613  -3.478  -0.671  0.00  0.00     0.178 HD
ATOM     22  H           0       1.264  -2.896   0.405  0.00  0.00     0.180 HD
ENDROOT
BRANCH   6  23
ATOM     23  C           0      -2.688   0.620  -0.610  0.00  0.00     0.208 C 
BRANCH  23  24
ATOM     24  O           0      -3.866   1.297  -0.098  0.00  0.00    -0.302 OA
BRANCH  24  25
ATOM     25  C           0      -4.104   2.579  -0.435  0.00  0.00     0.358 C 
ATOM     26  N           0      -5.197   3.208   0.040  0.00  0.00    -0.346 N 
ATOM     27  H           0      -5.813   2.738   0.624  0.00  0.00     0.161 HD
ATOM     28  H           0      -5.369   4.132  -0.202  0.00  0.00     0.161 HD
ATOM     29  O           0      -3.334   3.169  -1.166  0.00  0.00    -0.239 OA
ENDBRANCH  24  25
ENDBRANCH  23  24
ENDBRANCH   6  23
BRANCH  19  30
ATOM     30  O           0       1.350  -1.360  -2.094  0.00  0.00    -0.360 OA
ATOM     31  H           0       1.974  -0.808  -2.584  0.00  0.00     0.213 HD
ENDBRANCH  19  30
BRANCH  19  32
ATOM     32  O           0       0.034   0.550  -1.698  0.00  0.00    -0.360 OA
ATOM     33  H           0       0.677   1.075  -2.194  0.00  0.00     0.213 HD
ENDBRANCH  19  32
BRANCH  18  34
ATOM     34  O           0       2.167   1.365  -0.431  0.00  0.00    -0.244 OA
BRANCH  34  35
ATOM     35  S           0       3.635   1.551  -0.077  0.00  0.00     0.252 S 
ATOM     36  O           0       4.397   0.880  -1.118  0.00  0.00    -0.572 OA
ATOM     37  O           0       3.874   2.986  -0.053  0.00  0.00    -0.572 OA
ATOM     38  O           0       3.823   0.937   1.229  0.00  0.00    -0.572 OA
ENDBRANCH  34  35
ENDBRANCH  18  34
TORSDOF 7
