REMARK  7 active torsions:
REMARK  status: ('A' for Active; 'I' for Inactive)
REMARK    1  A    between atoms: C_6  and  C_7 
REMARK    2  A    between atoms: C_7  and  O_8 
REMARK    3  A    between atoms: O_8  and  C_9 
REMARK       I    between atoms: C_9  and  N_10 
REMARK    4  A    between atoms: C_22  and  O_23 
REMARK    5  A    between atoms: O_23  and  S_24 
REMARK    6  A    between atoms: C_28  and  O_29 
REMARK    7  A    between atoms: C_28  and  O_30 
ROOT
ATOM      1  N           0      -1.250   0.292   3.096  0.00  0.00    -0.235 N 
ATOM      2  H           0      -2.063   0.418   3.609  0.00  0.00     0.174 HD
ATOM      3  H           0      -0.403   0.616   3.442  0.00  0.00     0.174 HD
ATOM      4  C           0      -1.293  -0.318   1.945  0.00  0.00     0.672 C 
ATOM      5  N           0      -2.475  -0.803   1.412  0.00  0.00    -0.218 N 
ATOM      6  C           0      -2.595  -0.888  -0.041  0.00  0.00     0.151 C 
ATOM      7  C           0      -1.427  -1.611  -0.683  0.00  0.00     0.180 C 
ATOM      8  N           0      -1.586  -3.067  -0.479  0.00  0.00    -0.216 N 
ATOM      9  C           0      -0.343  -3.586  -0.209  0.00  0.00     0.670 C 
ATOM     10  N           0      -0.034  -4.846  -0.331  0.00  0.00    -0.235 N 
ATOM     11  H           0      -0.702  -5.483  -0.630  0.00  0.00     0.174 HD
ATOM     12  H           0       0.865  -5.147  -0.124  0.00  0.00     0.174 HD
ATOM     13  C           0      -0.079  -1.299  -0.051  0.00  0.00     0.220 C 
ATOM     14  N           0       0.532  -2.613   0.205  0.00  0.00    -0.191 N 
ATOM     15  N           0      -0.172  -0.515   1.181  0.00  0.00    -0.180 N 
ATOM     16  C           0       1.172   0.055   1.382  0.00  0.00     0.183 C 
ATOM     17  C           0       1.650   0.424  -0.042  0.00  0.00     0.230 C 
ATOM     18  C           0       0.820  -0.478  -0.991  0.00  0.00     0.238 C 
ATOM     19  H           0      -3.204  -1.079   1.988  0.00  0.00     0.178 HD
ATOM     20  H           0      -2.417  -3.565  -0.528  0.00  0.00     0.178 HD
ATOM     21  H           0       1.406  -2.766   0.597  0.00  0.00     0.180 HD
ENDROOT
BRANCH   6  22
ATOM     22  C           0      -2.671   0.529  -0.614  0.00  0.00     0.208 C 
BRANCH  22  23
ATOM     23  O           0      -3.891   1.171  -0.157  0.00  0.00    -0.302 OA
BRANCH  23  24
ATOM     24  C           0      -4.172   2.431  -0.539  0.00  0.00     0.358 C 
ATOM     25  N           0      -5.304   3.027  -0.115  0.00  0.00    -0.346 N 
ATOM     26  H           0      -5.916   2.548   0.465  0.00  0.00     0.161 HD
ATOM     27  H           0      -5.506   3.935  -0.389  0.00  0.00     0.161 HD
ATOM     28  O           0      -3.404   3.032  -1.265  0.00  0.00    -0.239 OA
ENDBRANCH  23  24
ENDBRANCH  22  23
ENDBRANCH   6  22
BRANCH  18  29
ATOM     29  O           0       1.680  -1.337  -1.742  0.00  0.00    -0.360 OA
ATOM     30  H           0       2.254  -0.765  -2.270  0.00  0.00     0.213 HD
ENDBRANCH  18  29
BRANCH  18  31
ATOM     31  O           0       0.023   0.322  -1.868  0.00  0.00    -0.360 OA
ATOM     32  H           0       0.635   0.856  -2.392  0.00  0.00     0.213 HD
ENDBRANCH  18  31
BRANCH  17  33
ATOM     33  O           0       3.044   0.144  -0.186  0.00  0.00    -0.244 OA
BRANCH  33  34
ATOM     34  S           0       3.783   1.450   0.067  0.00  0.00     0.252 S 
ATOM     35  O           0       3.744   1.673   1.504  0.00  0.00    -0.572 OA
ATOM     36  O           0       5.138   1.258  -0.426  0.00  0.00    -0.572 OA
ATOM     37  O           0       3.066   2.478  -0.672  0.00  0.00    -0.572 OA
ENDBRANCH  33  34
ENDBRANCH  17  33
TORSDOF 7
