REMARK  7 active torsions:
REMARK  status: ('A' for Active; 'I' for Inactive)
REMARK    1  A    between atoms: C_6  and  C_7 
REMARK    2  A    between atoms: C_7  and  O_8 
REMARK    3  A    between atoms: O_8  and  C_9 
REMARK       I    between atoms: C_9  and  N_10 
REMARK    4  A    between atoms: C_22  and  O_23 
REMARK    5  A    between atoms: O_23  and  S_24 
REMARK    6  A    between atoms: C_28  and  O_29 
REMARK    7  A    between atoms: C_28  and  O_30 
ROOT
ATOM      1  N           0      -0.967   0.361   3.100  0.00  0.00    -0.235 N 
ATOM      2  H           0      -1.695   0.761   3.600  0.00  0.00     0.174 HD
ATOM      3  H           0      -0.067   0.371   3.461  0.00  0.00     0.174 HD
ATOM      4  C           0      -1.199  -0.196   1.944  0.00  0.00     0.672 C 
ATOM      5  N           0      -2.466  -0.240   1.389  0.00  0.00    -0.218 N 
ATOM      6  C           0      -2.583  -0.278  -0.066  0.00  0.00     0.151 C 
ATOM      7  C           0      -1.728  -1.361  -0.693  0.00  0.00     0.180 C 
ATOM      8  N           0      -2.385  -2.672  -0.502  0.00  0.00    -0.216 N 
ATOM      9  C           0      -1.404  -3.589  -0.215  0.00  0.00     0.670 C 
ATOM     10  N           0      -1.549  -4.879  -0.340  0.00  0.00    -0.235 N 
ATOM     11  H           0      -2.391  -5.244  -0.653  0.00  0.00     0.174 HD
ATOM     12  H           0      -0.814  -5.473  -0.120  0.00  0.00     0.174 HD
ATOM     13  C           0      -0.367  -1.536  -0.038  0.00  0.00     0.220 C 
ATOM     14  N           0      -0.253  -2.981   0.220  0.00  0.00    -0.191 N 
ATOM     15  N           0      -0.203  -0.769   1.198  0.00  0.00    -0.180 N 
ATOM     16  C           0       1.252  -0.701   1.424  0.00  0.00     0.183 C 
ATOM     17  C           0       1.852  -0.520   0.010  0.00  0.00     0.230 C 
ATOM     18  C           0       0.777  -1.077  -0.958  0.00  0.00     0.238 C 
ATOM     19  H           0      -3.256  -0.247   1.952  0.00  0.00     0.178 HD
ATOM     20  H           0      -3.336  -2.851  -0.566  0.00  0.00     0.178 HD
ATOM     21  H           0       0.507  -3.427   0.625  0.00  0.00     0.180 HD
ENDROOT
BRANCH   6  22
ATOM     22  C           0      -2.153   1.078  -0.631  0.00  0.00     0.208 C 
BRANCH  22  23
ATOM     23  O           0      -3.083   2.102  -0.190  0.00  0.00    -0.302 OA
BRANCH  23  24
ATOM     24  C           0      -2.902   3.382  -0.568  0.00  0.00     0.358 C 
ATOM     25  N           0      -3.765   4.333  -0.158  0.00  0.00    -0.346 N 
ATOM     26  H           0      -4.515   4.096   0.408  0.00  0.00     0.161 HD
ATOM     27  H           0      -3.635   5.255  -0.430  0.00  0.00     0.161 HD
ATOM     28  O           0      -1.962   3.679  -1.277  0.00  0.00    -0.239 OA
ENDBRANCH  23  24
ENDBRANCH  22  23
ENDBRANCH   6  22
BRANCH  18  29
ATOM     29  O           0       1.300  -2.181  -1.700  0.00  0.00    -0.360 OA
ATOM     30  H           0       2.046  -1.844  -2.215  0.00  0.00     0.213 HD
ENDBRANCH  18  29
BRANCH  18  31
ATOM     31  O           0       0.323  -0.051  -1.842  0.00  0.00    -0.360 OA
ATOM     32  H           0       1.091   0.238  -2.354  0.00  0.00     0.213 HD
ENDBRANCH  18  31
BRANCH  17  33
ATOM     33  O           0       2.094   0.863  -0.254  0.00  0.00    -0.244 OA
BRANCH  33  34
ATOM     34  S           0       3.560   1.122   0.066  0.00  0.00     0.252 S 
ATOM     35  O           0       4.327   0.545  -1.027  0.00  0.00    -0.572 OA
ATOM     36  O           0       3.713   2.567   0.147  0.00  0.00    -0.572 OA
ATOM     37  O           0       3.825   0.465   1.336  0.00  0.00    -0.572 OA
ENDBRANCH  33  34
ENDBRANCH  17  33
TORSDOF 7
