REMARK  22 active torsions:
REMARK  status: ('A' for Active; 'I' for Inactive)
REMARK    1  A    between atoms: C_6  and  C_7 
REMARK    2  A    between atoms: C_7  and  O_8 
REMARK    3  A    between atoms: O_8  and  C_9 
REMARK       I    between atoms: C_9  and  N_10 
REMARK    4  A    between atoms: N_10  and  C_11 
REMARK    5  A    between atoms: C_11  and  C_12 
REMARK    6  A    between atoms: C_15  and  C_16 
REMARK    7  A    between atoms: C_16  and  C_17 
REMARK    8  A    between atoms: C_20  and  C_21 
REMARK       I    between atoms: C_21  and  N_22 
REMARK    9  A    between atoms: N_22  and  C_23 
REMARK   10  A    between atoms: C_23  and  C_24 
REMARK   11  A    between atoms: C_24  and  C_25 
REMARK   12  A    between atoms: C_25  and  C_26 
REMARK   13  A    between atoms: C_26  and  C_27 
REMARK   14  A    between atoms: C_27  and  C_28 
REMARK   15  A    between atoms: C_28  and  N_29 
REMARK       I    between atoms: N_29  and  C_30 
REMARK   16  A    between atoms: C_30  and  C_31 
REMARK   17  A    between atoms: C_31  and  C_32 
REMARK   18  A    between atoms: C_32  and  C_33 
REMARK   19  A    between atoms: C_33  and  C_34 
REMARK   20  A    between atoms: C_34  and  C_35 
REMARK   21  A    between atoms: C_63  and  O_64 
REMARK   22  A    between atoms: C_63  and  O_65 
ROOT
ATOM      1  C           0       7.869  -3.286  -1.127  0.00  0.00    -0.040 A 
ATOM      2  C           0       6.621  -3.579  -1.649  0.00  0.00     0.010 A 
ATOM      3  C           0       5.995  -4.764  -1.322  0.00  0.00     0.016 A 
ATOM      4  C           0       6.623  -5.668  -0.462  0.00  0.00     0.015 A 
ATOM      5  C           0       7.883  -5.366   0.060  0.00  0.00     0.016 A 
ATOM      6  C           0       8.500  -4.180  -0.280  0.00  0.00     0.010 A 
ENDROOT
BRANCH   4   7
ATOM      7  C           0       5.958  -6.939  -0.108  0.00  0.00     0.192 C 
ATOM      8  O           0       6.621  -7.941   0.076  0.00  0.00    -0.287 OA
BRANCH   7   9
ATOM      9  C           0       4.486  -6.992   0.023  0.00  0.00     0.015 A 
ATOM     10  C           0       3.737  -5.814  -0.025  0.00  0.00     0.016 A 
ATOM     11  C           0       2.365  -5.864   0.092  0.00  0.00     0.018 A 
ATOM     12  C           0       1.725  -7.091   0.269  0.00  0.00     0.032 A 
ATOM     13  C           0       2.473  -8.268   0.323  0.00  0.00     0.018 A 
ATOM     14  C           0       3.844  -8.219   0.201  0.00  0.00     0.016 A 
BRANCH  12  15
ATOM     15  C           0       0.251  -7.145   0.399  0.00  0.00     0.251 C 
ATOM     16  N           0      -0.472  -6.008   0.347  0.00  0.00    -0.357 N 
ATOM     17  H           0      -0.026  -5.155   0.223  0.00  0.00     0.162 HD
ATOM     18  O           0      -0.307  -8.213   0.554  0.00  0.00    -0.268 OA
BRANCH  16  19
ATOM     19  C           0      -1.930  -6.061   0.476  0.00  0.00     0.123 C 
BRANCH  19  20
ATOM     20  C           0      -2.502  -4.645   0.383  0.00  0.00     0.020 C 
BRANCH  20  21
ATOM     21  C           0      -4.025  -4.700   0.518  0.00  0.00     0.002 C 
BRANCH  21  22
ATOM     22  C           0      -4.596  -3.284   0.424  0.00  0.00     0.002 C 
BRANCH  22  23
ATOM     23  C           0      -6.119  -3.339   0.559  0.00  0.00     0.020 C 
BRANCH  23  24
ATOM     24  C           0      -6.691  -1.923   0.466  0.00  0.00     0.122 C 
BRANCH  24  25
ATOM     25  N           0      -8.150  -1.975   0.595  0.00  0.00    -0.361 N 
ATOM     26  C           0      -8.872  -0.839   0.542  0.00  0.00     0.217 C 
ATOM     27  O           0      -8.315   0.228   0.388  0.00  0.00    -0.274 OA
ATOM     28  H           0      -8.595  -2.828   0.718  0.00  0.00     0.162 HD
BRANCH  26  29
ATOM     29  C           0     -10.372  -0.893   0.675  0.00  0.00     0.103 C 
BRANCH  29  30
ATOM     30  C           0     -10.944   0.523   0.582  0.00  0.00     0.009 C 
BRANCH  30  31
ATOM     31  C           0     -12.467   0.468   0.717  0.00  0.00     0.002 C 
BRANCH  31  32
ATOM     32  C           0     -13.039   1.884   0.623  0.00  0.00     0.017 C 
BRANCH  32  33
ATOM     33  C           0     -14.562   1.829   0.758  0.00  0.00     0.072 C 
ATOM     34  C           0     -15.174   3.246   0.712  0.00  0.00     0.123 A 
ATOM     35  C           0     -16.482   3.325  -0.083  0.00  0.00     0.119 A 
ATOM     36  N           0     -14.260   4.140  -0.016  0.00  0.00    -0.335 N 
ATOM     37  C           0     -16.929   1.972  -0.677  0.00  0.00     0.101 C 
ATOM     38  N           0     -16.178   4.256  -1.181  0.00  0.00    -0.336 N 
ATOM     39  S           0     -15.331   1.050  -0.727  0.00  0.00    -0.160 SA
ATOM     40  C           0     -14.907   4.666  -1.067  0.00  0.00     0.316 A 
ATOM     41  H           0     -16.798   4.529  -1.875  0.00  0.00     0.164 HD
ATOM     42  O           0     -14.389   5.443  -1.845  0.00  0.00    -0.247 OA
ATOM     43  H           0     -13.337   4.321   0.225  0.00  0.00     0.164 HD
ENDBRANCH  32  33
ENDBRANCH  31  32
ENDBRANCH  30  31
ENDBRANCH  29  30
ENDBRANCH  26  29
ENDBRANCH  24  25
ENDBRANCH  23  24
ENDBRANCH  22  23
ENDBRANCH  21  22
ENDBRANCH  20  21
ENDBRANCH  19  20
ENDBRANCH  16  19
ENDBRANCH  12  15
ENDBRANCH   7   9
ENDBRANCH   4   7
BRANCH   1  44
ATOM     44  C           0       8.547  -1.990  -1.489  0.00  0.00     0.163 C 
BRANCH  44  45
ATOM     45  N           0       8.170  -0.955  -0.523  0.00  0.00    -0.333 N 
ATOM     46  C           0       8.660   0.294  -0.648  0.00  0.00     0.360 C 
ATOM     47  O           0       9.414   0.563  -1.562  0.00  0.00    -0.239 OA
ATOM     48  H           0       7.568  -1.169   0.207  0.00  0.00     0.165 HD
BRANCH  46  49
ATOM     49  O           0       8.313   1.245   0.240  0.00  0.00    -0.302 OA
BRANCH  49  50
ATOM     50  C           0       8.841   2.591   0.105  0.00  0.00     0.208 C 
BRANCH  50  51
ATOM     51  C           0       8.294   3.468   1.234  0.00  0.00     0.151 C 
ATOM     52  N           0       6.848   3.595   1.075  0.00  0.00    -0.218 N 
ATOM     53  C           0       6.368   4.335   0.008  0.00  0.00     0.672 C 
ATOM     54  H           0       6.240   3.171   1.700  0.00  0.00     0.178 HD
ATOM     55  N           0       5.211   4.092  -0.540  0.00  0.00    -0.235 N 
ATOM     56  N           0       7.190   5.337  -0.437  0.00  0.00    -0.183 N 
ATOM     57  H           0       4.656   3.372  -0.202  0.00  0.00     0.174 HD
ATOM     58  H           0       4.903   4.633  -1.284  0.00  0.00     0.174 HD
ATOM     59  C           0       8.438   5.786   0.183  0.00  0.00     0.217 C 
ATOM     60  C           0       7.048   6.149  -1.659  0.00  0.00     0.150 C 
ATOM     61  C           0       9.005   4.807   1.199  0.00  0.00     0.180 C 
ATOM     62  C           0       9.409   6.031  -0.985  0.00  0.00     0.209 C 
ATOM     63  N           0       8.233   7.036   0.934  0.00  0.00    -0.191 N 
ATOM     64  N           0       8.817   5.492   2.495  0.00  0.00    -0.216 N 
ATOM     65  C           0       8.618   6.826   2.235  0.00  0.00     0.670 C 
ATOM     66  H           0       8.831   5.075   3.371  0.00  0.00     0.178 HD
ATOM     67  N           0       8.775   7.775   3.114  0.00  0.00    -0.235 N 
ATOM     68  H           0       9.049   7.558   4.019  0.00  0.00     0.174 HD
ATOM     69  H           0       8.618   8.699   2.864  0.00  0.00     0.174 HD
ATOM     70  C           0       8.489   6.269  -2.209  0.00  0.00     0.093 C 
ATOM     71  H           0       7.888   7.866   0.571  0.00  0.00     0.180 HD
BRANCH  62  72
ATOM     72  O           0      10.215   7.184  -0.735  0.00  0.00    -0.362 OA
ATOM     73  H           0      10.762   7.317  -1.521  0.00  0.00     0.213 HD
ENDBRANCH  62  72
BRANCH  62  74
ATOM     74  O           0      10.232   4.882  -1.196  0.00  0.00    -0.362 OA
ATOM     75  H           0      10.778   5.068  -1.971  0.00  0.00     0.213 HD
ENDBRANCH  62  74
ENDBRANCH  50  51
ENDBRANCH  49  50
ENDBRANCH  46  49
ENDBRANCH  44  45
ENDBRANCH   1  44
TORSDOF 22
