REMARK  6 active torsions:
REMARK  status: ('A' for Active; 'I' for Inactive)
REMARK    1  A    between atoms: C_6  and  C_7 
REMARK    2  A    between atoms: C_7  and  O_8 
REMARK    3  A    between atoms: O_8  and  C_9 
REMARK       I    between atoms: C_9  and  N_10 
REMARK    4  A    between atoms: N_10  and  C_11 
REMARK    5  A    between atoms: C_26  and  O_27 
REMARK    6  A    between atoms: C_26  and  O_28 
ROOT
ATOM      1  N           0      -0.320   0.071  -3.162  0.00  0.00    -0.235 N 
ATOM      2  H           0       0.321  -0.496  -3.619  0.00  0.00     0.174 HD
ATOM      3  H           0      -0.663   0.866  -3.600  0.00  0.00     0.174 HD
ATOM      4  C           0      -0.725  -0.238  -1.962  0.00  0.00     0.672 C 
ATOM      5  N           0      -0.270  -1.363  -1.298  0.00  0.00    -0.218 N 
ATOM      6  C           0      -0.235  -1.338   0.162  0.00  0.00     0.151 C 
ATOM      7  C           0      -1.553  -0.902   0.770  0.00  0.00     0.180 C 
ATOM      8  N           0      -2.514  -2.024   0.708  0.00  0.00    -0.216 N 
ATOM      9  C           0      -3.742  -1.501   0.387  0.00  0.00     0.670 C 
ATOM     10  N           0      -4.875  -2.113   0.594  0.00  0.00    -0.235 N 
ATOM     11  H           0      -4.883  -2.994   0.998  0.00  0.00     0.174 HD
ATOM     12  H           0      -5.709  -1.686   0.343  0.00  0.00     0.174 HD
ATOM     13  C           0      -2.249   0.217   0.010  0.00  0.00     0.217 C 
ATOM     14  N           0      -3.631  -0.255  -0.178  0.00  0.00    -0.191 N 
ATOM     15  N           0      -1.625   0.534  -1.275  0.00  0.00    -0.183 N 
ATOM     16  C           0      -2.125   1.875  -1.630  0.00  0.00     0.150 C 
ATOM     17  C           0      -2.165   2.638  -0.285  0.00  0.00     0.093 C 
ATOM     18  C           0      -2.250   1.536   0.801  0.00  0.00     0.209 C 
ATOM     19  H           0       0.018  -2.149  -1.789  0.00  0.00     0.178 HD
ATOM     20  H           0      -2.312  -2.960   0.864  0.00  0.00     0.178 HD
ATOM     21  H           0      -4.342   0.232  -0.622  0.00  0.00     0.180 HD
ENDROOT
BRANCH   6  22
ATOM     22  C           0       0.860  -0.370   0.613  0.00  0.00     0.208 C 
BRANCH  22  23
ATOM     23  O           0       2.156  -0.878   0.199  0.00  0.00    -0.302 OA
BRANCH  23  24
ATOM     24  C           0       3.274  -0.187   0.490  0.00  0.00     0.360 C 
ATOM     25  N           0       4.477  -0.659   0.106  0.00  0.00    -0.333 N 
ATOM     26  H           0       4.537  -1.496  -0.380  0.00  0.00     0.165 HD
ATOM     27  O           0       3.199   0.862   1.099  0.00  0.00    -0.239 OA
BRANCH  25  28
ATOM     28  C           0       5.694   0.093   0.422  0.00  0.00     0.078 C 
ATOM     29  C           0       6.887  -0.863   0.466  0.00  0.00     0.032 C 
ATOM     30  C           0       5.930   1.156  -0.653  0.00  0.00     0.032 C 
ENDBRANCH  25  28
ENDBRANCH  23  24
ENDBRANCH  22  23
ENDBRANCH   6  22
BRANCH  18  31
ATOM     31  O           0      -3.457   1.670   1.554  0.00  0.00    -0.362 OA
ATOM     32  H           0      -3.424   2.536   1.984  0.00  0.00     0.213 HD
ENDBRANCH  18  31
BRANCH  18  33
ATOM     33  O           0      -1.113   1.598   1.665  0.00  0.00    -0.362 OA
ATOM     34  H           0      -1.133   2.466   2.091  0.00  0.00     0.213 HD
ENDBRANCH  18  33
TORSDOF 6
