REMARK  3 active torsions:
REMARK  status: ('A' for Active; 'I' for Inactive)
REMARK    1  A    between atoms: C_6  and  C_7 
REMARK    2  A    between atoms: C_7  and  O_8 
REMARK    3  A    between atoms: O_8  and  C_9 
REMARK       I    between atoms: C_9  and  N_10 
ROOT
ATOM      1  N           0       0.124   1.333  -2.596  0.00  0.00    -0.235 N 
ATOM      2  H           0       0.698   0.963  -3.284  0.00  0.00     0.174 HD
ATOM      3  H           0      -0.224   2.234  -2.687  0.00  0.00     0.174 HD
ATOM      4  C           0      -0.185   0.618  -1.550  0.00  0.00     0.672 C 
ATOM      5  N           0       0.282  -0.673  -1.378  0.00  0.00    -0.218 N 
ATOM      6  C           0       0.459  -1.172  -0.018  0.00  0.00     0.151 C 
ATOM      7  C           0      -0.776  -0.974   0.840  0.00  0.00     0.174 C 
ATOM      8  N           0      -1.772  -2.010   0.507  0.00  0.00    -0.216 N 
ATOM      9  C           0      -2.933  -1.390   0.118  0.00  0.00     0.670 C 
ATOM     10  N           0      -3.937  -2.003  -0.443  0.00  0.00    -0.235 N 
ATOM     11  H           0      -3.891  -2.957  -0.611  0.00  0.00     0.174 HD
ATOM     12  H           0      -4.731  -1.504  -0.694  0.00  0.00     0.174 HD
ATOM     13  C           0      -1.503   0.335   0.587  0.00  0.00     0.162 C 
ATOM     14  N           0      -2.907  -0.044   0.395  0.00  0.00    -0.197 N 
ATOM     15  N           0      -0.989   1.101  -0.547  0.00  0.00    -0.189 N 
ATOM     16  C           0      -1.467   2.481  -0.371  0.00  0.00     0.144 C 
ATOM     17  C           0      -1.727   2.672   1.138  0.00  0.00     0.025 C 
ATOM     18  C           0      -1.384   1.306   1.777  0.00  0.00     0.059 C 
ATOM     19  H           0       0.486  -1.233  -2.144  0.00  0.00     0.178 HD
ATOM     20  H           0      -1.631  -2.969   0.554  0.00  0.00     0.178 HD
ATOM     21  H           0      -3.674   0.547   0.451  0.00  0.00     0.180 HD
ENDROOT
BRANCH   6  22
ATOM     22  C           0       1.633  -0.435   0.630  0.00  0.00     0.208 C 
BRANCH  22  23
ATOM     23  O           0       2.860  -0.768  -0.071  0.00  0.00    -0.302 OA
BRANCH  23  24
ATOM     24  C           0       4.029  -0.232   0.326  0.00  0.00     0.358 C 
ATOM     25  N           0       5.168  -0.540  -0.325  0.00  0.00    -0.346 N 
ATOM     26  H           0       5.145  -1.148  -1.081  0.00  0.00     0.161 HD
ATOM     27  H           0       6.011  -0.154  -0.039  0.00  0.00     0.161 HD
ATOM     28  O           0       4.058   0.530   1.273  0.00  0.00    -0.239 OA
ENDBRANCH  23  24
ENDBRANCH  22  23
ENDBRANCH   6  22
TORSDOF 3
