REMARK  6 active torsions:
REMARK  status: ('A' for Active; 'I' for Inactive)
REMARK    1  A    between atoms: C_6  and  C_7 
REMARK    2  A    between atoms: C_7  and  O_8 
REMARK    3  A    between atoms: O_8  and  C_9 
REMARK       I    between atoms: C_9  and  N_10 
REMARK    4  A    between atoms: C_23  and  C_24 
REMARK    5  A    between atoms: C_23  and  O_27 
REMARK    6  A    between atoms: C_24  and  C_25 
ROOT
ATOM      1  N           0       0.383  -2.283  -2.556  0.00  0.00    -0.235 N 
ATOM      2  H           0       1.000  -3.031  -2.562  0.00  0.00     0.174 HD
ATOM      3  H           0       0.038  -1.931  -3.391  0.00  0.00     0.174 HD
ATOM      4  C           0       0.013  -1.753  -1.423  0.00  0.00     0.672 C 
ATOM      5  N           0       0.473  -2.223  -0.205  0.00  0.00    -0.218 N 
ATOM      6  C           0       0.556  -1.286   0.911  0.00  0.00     0.151 C 
ATOM      7  C           0      -0.734  -0.520   1.129  0.00  0.00     0.178 C 
ATOM      8  N           0      -1.713  -1.400   1.804  0.00  0.00    -0.216 N 
ATOM      9  C           0      -2.944  -1.156   1.245  0.00  0.00     0.670 C 
ATOM     10  N           0      -4.078  -1.463   1.809  0.00  0.00    -0.235 N 
ATOM     11  H           0      -4.086  -1.892   2.679  0.00  0.00     0.174 HD
ATOM     12  H           0      -4.913  -1.263   1.359  0.00  0.00     0.174 HD
ATOM     13  C           0      -1.438  -0.109  -0.154  0.00  0.00     0.192 C 
ATOM     14  N           0      -2.832  -0.548   0.019  0.00  0.00    -0.194 N 
ATOM     15  N           0      -0.851  -0.692  -1.362  0.00  0.00    -0.185 N 
ATOM     16  C           0      -1.342   0.141  -2.475  0.00  0.00     0.147 C 
ATOM     17  C           0      -1.327   1.582  -1.912  0.00  0.00     0.063 C 
ATOM     18  C           0      -1.393   1.413  -0.373  0.00  0.00     0.106 C 
ATOM     19  H           0       0.733  -3.151  -0.096  0.00  0.00     0.178 HD
ATOM     20  H           0      -1.521  -2.034   2.512  0.00  0.00     0.178 HD
ATOM     21  H           0      -3.550  -0.427  -0.622  0.00  0.00     0.180 HD
ENDROOT
BRANCH   6  22
ATOM     22  C           0       1.680  -0.286   0.633  0.00  0.00     0.208 C 
BRANCH  22  23
ATOM     23  O           0       2.957  -0.977   0.646  0.00  0.00    -0.302 OA
BRANCH  23  24
ATOM     24  C           0       4.095  -0.293   0.424  0.00  0.00     0.358 C 
ATOM     25  N           0       5.281  -0.934   0.436  0.00  0.00    -0.346 N 
ATOM     26  H           0       5.314  -1.889   0.604  0.00  0.00     0.161 HD
ATOM     27  H           0       6.101  -0.441   0.276  0.00  0.00     0.161 HD
ATOM     28  O           0       4.054   0.903   0.213  0.00  0.00    -0.239 OA
ENDBRANCH  23  24
ENDBRANCH  22  23
ENDBRANCH   6  22
BRANCH  18  29
ATOM     29  C           0      -0.145   2.008   0.283  0.00  0.00     0.042 C 
BRANCH  29  30
ATOM     30  C           0      -0.079   3.507  -0.013  0.00  0.00    -0.001 C 
ATOM     31  C           0       1.169   4.102   0.643  0.00  0.00     0.005 C 
ENDBRANCH  29  30
ENDBRANCH  18  29
BRANCH  18  32
ATOM     32  O           0      -2.572   2.031   0.147  0.00  0.00    -0.385 OA
ATOM     33  H           0      -2.511   2.972  -0.067  0.00  0.00     0.210 HD
ENDBRANCH  18  32
TORSDOF 6
