REMARK  5 active torsions:
REMARK  status: ('A' for Active; 'I' for Inactive)
REMARK    1  A    between atoms: C_6  and  C_7 
REMARK    2  A    between atoms: C_7  and  O_8 
REMARK    3  A    between atoms: O_8  and  C_9 
REMARK       I    between atoms: C_9  and  N_10 
REMARK    4  A    between atoms: C_24  and  O_25 
REMARK    5  A    between atoms: C_24  and  O_26 
ROOT
ATOM      1  N           0       0.227  -0.488  -3.139  0.00  0.00    -0.235 N 
ATOM      2  H           0       0.869  -1.125  -3.492  0.00  0.00     0.174 HD
ATOM      3  H           0      -0.125   0.212  -3.710  0.00  0.00     0.174 HD
ATOM      4  C           0      -0.165  -0.578  -1.900  0.00  0.00     0.672 C 
ATOM      5  N           0       0.304  -1.562  -1.047  0.00  0.00    -0.218 N 
ATOM      6  C           0       0.351  -1.274   0.383  0.00  0.00     0.151 C 
ATOM      7  C           0      -0.966  -0.743   0.916  0.00  0.00     0.180 C 
ATOM      8  N           0      -1.918  -1.864   1.066  0.00  0.00    -0.216 N 
ATOM      9  C           0      -3.153  -1.414   0.668  0.00  0.00     0.670 C 
ATOM     10  N           0      -4.279  -1.985   0.992  0.00  0.00    -0.235 N 
ATOM     11  H           0      -4.278  -2.779   1.549  0.00  0.00     0.174 HD
ATOM     12  H           0      -5.119  -1.616   0.677  0.00  0.00     0.174 HD
ATOM     13  C           0      -1.676   0.216  -0.027  0.00  0.00     0.217 C 
ATOM     14  N           0      -3.056  -0.290  -0.113  0.00  0.00    -0.191 N 
ATOM     15  N           0      -1.065   0.300  -1.354  0.00  0.00    -0.183 N 
ATOM     16  C           0      -1.578   1.552  -1.940  0.00  0.00     0.150 C 
ATOM     17  C           0      -1.613   2.545  -0.755  0.00  0.00     0.093 C 
ATOM     18  C           0      -1.680   1.656   0.513  0.00  0.00     0.209 C 
ATOM     19  H           0       0.593  -2.422  -1.392  0.00  0.00     0.178 HD
ATOM     20  H           0      -1.708  -2.755   1.387  0.00  0.00     0.178 HD
ATOM     21  H           0      -3.774   0.105  -0.632  0.00  0.00     0.180 HD
ENDROOT
BRANCH   6  22
ATOM     22  C           0       1.442  -0.234   0.642  0.00  0.00     0.208 C 
BRANCH  22  23
ATOM     23  O           0       2.738  -0.801   0.315  0.00  0.00    -0.302 OA
BRANCH  23  24
ATOM     24  C           0       3.854  -0.062   0.465  0.00  0.00     0.360 C 
ATOM     25  N           0       5.057  -0.588   0.161  0.00  0.00    -0.341 N 
ATOM     26  C           0       6.270   0.216   0.325  0.00  0.00     0.151 C 
ATOM     27  H           0       5.119  -1.499  -0.166  0.00  0.00     0.164 HD
ATOM     28  O           0       3.776   1.079   0.875  0.00  0.00    -0.239 OA
ENDBRANCH  23  24
ENDBRANCH  22  23
ENDBRANCH   6  22
BRANCH  18  29
ATOM     29  O           0      -2.882   1.917   1.241  0.00  0.00    -0.362 OA
ATOM     30  H           0      -2.852   2.846   1.507  0.00  0.00     0.213 HD
ENDBRANCH  18  29
BRANCH  18  31
ATOM     31  O           0      -0.537   1.880   1.340  0.00  0.00    -0.362 OA
ATOM     32  H           0      -0.560   2.810   1.604  0.00  0.00     0.213 HD
ENDBRANCH  18  31
TORSDOF 5
