REMARK  5 active torsions:
REMARK  status: ('A' for Active; 'I' for Inactive)
REMARK    1  A    between atoms: C_6  and  C_7 
REMARK    2  A    between atoms: C_7  and  O_8 
REMARK    3  A    between atoms: O_8  and  C_9 
REMARK    4  A    between atoms: C_23  and  O_24 
REMARK    5  A    between atoms: C_23  and  O_25 
ROOT
ATOM      1  N           0       0.622  -0.388  -3.116  0.00  0.00    -0.235 N 
ATOM      2  H           0       1.286  -1.002  -3.467  0.00  0.00     0.174 HD
ATOM      3  H           0       0.268   0.317  -3.680  0.00  0.00     0.174 HD
ATOM      4  C           0       0.201  -0.515  -1.889  0.00  0.00     0.672 C 
ATOM      5  N           0       0.671  -1.509  -1.048  0.00  0.00    -0.218 N 
ATOM      6  C           0       0.676  -1.253   0.389  0.00  0.00     0.151 C 
ATOM      7  C           0      -0.665  -0.763   0.901  0.00  0.00     0.180 C 
ATOM      8  N           0      -1.595  -1.908   1.001  0.00  0.00    -0.216 N 
ATOM      9  C           0      -2.830  -1.477   0.582  0.00  0.00     0.670 C 
ATOM     10  N           0      -3.951  -2.080   0.865  0.00  0.00    -0.235 N 
ATOM     11  H           0      -3.945  -2.887   1.404  0.00  0.00     0.174 HD
ATOM     12  H           0      -4.790  -1.722   0.538  0.00  0.00     0.174 HD
ATOM     13  C           0      -1.374   0.201  -0.038  0.00  0.00     0.217 C 
ATOM     14  N           0      -2.739  -0.333  -0.171  0.00  0.00    -0.191 N 
ATOM     15  N           0      -0.732   0.330  -1.347  0.00  0.00    -0.183 N 
ATOM     16  C           0      -1.258   1.583  -1.917  0.00  0.00     0.150 C 
ATOM     17  C           0      -1.345   2.547  -0.710  0.00  0.00     0.093 C 
ATOM     18  C           0      -1.424   1.628   0.535  0.00  0.00     0.209 C 
ATOM     19  H           0       0.988  -2.354  -1.405  0.00  0.00     0.178 HD
ATOM     20  H           0      -1.373  -2.802   1.307  0.00  0.00     0.178 HD
ATOM     21  H           0      -3.453   0.058  -0.698  0.00  0.00     0.180 HD
ENDROOT
BRANCH   6  22
ATOM     22  C           0       1.737  -0.196   0.699  0.00  0.00     0.206 C 
BRANCH  22  23
ATOM     23  O           0       3.053  -0.726   0.392  0.00  0.00    -0.320 OA
BRANCH  23  24
ATOM     24  C           0       4.144   0.031   0.586  0.00  0.00     0.254 C 
ATOM     25  C           0       5.510  -0.519   0.267  0.00  0.00     0.126 C 
ATOM     26  O           0       4.031   1.154   1.018  0.00  0.00    -0.266 OA
ENDBRANCH  23  24
ENDBRANCH  22  23
ENDBRANCH   6  22
BRANCH  18  27
ATOM     27  O           0      -2.648   1.845   1.238  0.00  0.00    -0.362 OA
ATOM     28  H           0      -2.646   2.768   1.525  0.00  0.00     0.213 HD
ENDBRANCH  18  27
BRANCH  18  29
ATOM     29  O           0      -0.306   1.857   1.395  0.00  0.00    -0.362 OA
ATOM     30  H           0      -0.357   2.780   1.679  0.00  0.00     0.213 HD
ENDBRANCH  18  29
TORSDOF 5
