REMARK  13 active torsions:
REMARK  status: ('A' for Active; 'I' for Inactive)
REMARK    1  A    between atoms: C_6  and  C_7 
REMARK    2  A    between atoms: C_7  and  O_8 
REMARK    3  A    between atoms: O_8  and  C_9 
REMARK       I    between atoms: C_9  and  N_10 
REMARK    4  A    between atoms: N_10  and  C_11 
REMARK    5  A    between atoms: C_11  and  C_12 
REMARK    6  A    between atoms: C_12  and  C_13 
REMARK    7  A    between atoms: C_13  and  C_14 
REMARK    8  A    between atoms: C_14  and  C_15 
REMARK    9  A    between atoms: C_15  and  C_16 
REMARK   10  A    between atoms: C_16  and  N_17 
REMARK       I    between atoms: N_17  and  C_18 
REMARK   11  A    between atoms: C_18  and  C_19 
REMARK   12  A    between atoms: C_45  and  O_46 
REMARK   13  A    between atoms: C_45  and  O_47 
ROOT
ATOM      1  C           0       8.461   0.165  -0.624  0.00  0.00     0.115 A 
ATOM      2  C           0       8.976   1.429  -0.307  0.00  0.00     0.176 A 
ATOM      3  F           0       8.300   2.538  -0.679  0.00  0.00    -0.202 F 
ATOM      4  C           0      10.154   1.553   0.372  0.00  0.00     0.190 A 
ATOM      5  F           0      10.643   2.776   0.675  0.00  0.00    -0.200 F 
ATOM      6  C           0      10.880   0.343   0.771  0.00  0.00     0.176 A 
ATOM      7  N           0      12.022   0.427   1.430  0.00  0.00    -0.066 NA
ATOM      8  N           0      12.569  -0.509   1.729  0.00  0.00    -0.162 NA
ATOM      9  N           0      13.115  -1.444   2.029  0.00  0.00     0.068 N 
ATOM     10  C           0      10.311  -0.963   0.422  0.00  0.00     0.190 A 
ATOM     11  F           0      10.947  -2.103   0.770  0.00  0.00    -0.200 F 
ATOM     12  C           0       9.126  -1.013  -0.254  0.00  0.00     0.176 A 
ATOM     13  F           0       8.592  -2.210  -0.580  0.00  0.00    -0.202 F 
ENDROOT
BRANCH   1  14
ATOM     14  C           0       7.186   0.071  -1.358  0.00  0.00     0.258 C 
ATOM     15  N           0       6.022   0.012  -0.682  0.00  0.00    -0.357 N 
ATOM     16  H           0       6.023   0.031   0.288  0.00  0.00     0.162 HD
ATOM     17  O           0       7.185   0.047  -2.574  0.00  0.00    -0.267 OA
BRANCH  15  18
ATOM     18  C           0       4.755  -0.082  -1.412  0.00  0.00     0.123 C 
BRANCH  18  19
ATOM     19  C           0       3.595  -0.134  -0.415  0.00  0.00     0.020 C 
BRANCH  19  20
ATOM     20  C           0       2.272  -0.232  -1.177  0.00  0.00     0.002 C 
BRANCH  20  21
ATOM     21  C           0       1.112  -0.285  -0.181  0.00  0.00     0.002 C 
BRANCH  21  22
ATOM     22  C           0      -0.211  -0.382  -0.943  0.00  0.00     0.020 C 
BRANCH  22  23
ATOM     23  C           0      -1.371  -0.435   0.054  0.00  0.00     0.125 C 
BRANCH  23  24
ATOM     24  N           0      -2.638  -0.528  -0.676  0.00  0.00    -0.337 N 
ATOM     25  C           0      -3.802  -0.587   0.000  0.00  0.00     0.360 C 
ATOM     26  O           0      -3.801  -0.563   1.215  0.00  0.00    -0.239 OA
ATOM     27  H           0      -2.639  -0.547  -1.646  0.00  0.00     0.164 HD
BRANCH  25  28
ATOM     28  O           0      -4.966  -0.673  -0.670  0.00  0.00    -0.302 OA
BRANCH  28  29
ATOM     29  C           0      -6.221  -0.737   0.058  0.00  0.00     0.208 C 
BRANCH  29  30
ATOM     30  C           0      -7.382  -0.829  -0.933  0.00  0.00     0.151 C 
ATOM     31  N           0      -7.440   0.408  -1.708  0.00  0.00    -0.218 N 
ATOM     32  C           0      -7.831   1.568  -1.063  0.00  0.00     0.672 C 
ATOM     33  H           0      -7.210   0.416  -2.650  0.00  0.00     0.178 HD
ATOM     34  N           0      -7.425   2.746  -1.446  0.00  0.00    -0.235 N 
ATOM     35  N           0      -8.669   1.399   0.008  0.00  0.00    -0.183 N 
ATOM     36  H           0      -6.828   2.829  -2.206  0.00  0.00     0.174 HD
ATOM     37  H           0      -7.722   3.539  -0.973  0.00  0.00     0.174 HD
ATOM     38  C           0      -9.294   0.148   0.441  0.00  0.00     0.217 C 
ATOM     39  C           0      -9.087   2.406   0.999  0.00  0.00     0.150 C 
ATOM     40  C           0      -8.661  -1.096  -0.163  0.00  0.00     0.180 C 
ATOM     41  C           0      -9.199   0.154   1.976  0.00  0.00     0.209 C 
ATOM     42  N           0     -10.706   0.093   0.027  0.00  0.00    -0.191 N 
ATOM     43  N           0      -9.692  -1.603  -1.093  0.00  0.00    -0.216 N 
ATOM     44  C           0     -10.889  -1.032  -0.737  0.00  0.00     0.670 C 
ATOM     45  H           0      -9.549  -2.225  -1.824  0.00  0.00     0.178 HD
ATOM     46  N           0     -12.055  -1.502  -1.081  0.00  0.00    -0.235 N 
ATOM     47  H           0     -12.115  -2.304  -1.623  0.00  0.00     0.174 HD
ATOM     48  H           0     -12.864  -1.049  -0.794  0.00  0.00     0.174 HD
ATOM     49  C           0      -9.059   1.651   2.349  0.00  0.00     0.093 C 
ATOM     50  H           0     -11.391   0.741   0.257  0.00  0.00     0.180 HD
BRANCH  41  51
ATOM     51  O           0     -10.384  -0.396   2.556  0.00  0.00    -0.362 OA
ATOM     52  H           0     -10.289  -0.316   3.515  0.00  0.00     0.213 HD
ENDBRANCH  41  51
BRANCH  41  53
ATOM     53  O           0      -8.048  -0.576   2.405  0.00  0.00    -0.362 OA
ATOM     54  H           0      -8.007  -0.492   3.368  0.00  0.00     0.213 HD
ENDBRANCH  41  53
ENDBRANCH  29  30
ENDBRANCH  28  29
ENDBRANCH  25  28
ENDBRANCH  23  24
ENDBRANCH  22  23
ENDBRANCH  21  22
ENDBRANCH  20  21
ENDBRANCH  19  20
ENDBRANCH  18  19
ENDBRANCH  15  18
ENDBRANCH   1  14
TORSDOF 13
