REMARK  5 active torsions:
REMARK  status: ('A' for Active; 'I' for Inactive)
REMARK    1  A    between atoms: C_6  and  C_7 
REMARK    2  A    between atoms: C_7  and  O_8 
REMARK    3  A    between atoms: O_8  and  C_9 
REMARK    4  A    between atoms: C_24  and  O_25 
REMARK    5  A    between atoms: C_24  and  O_26 
ROOT
ATOM      1  N           0       0.545   1.643  -2.570  0.00  0.00    -0.235 N 
ATOM      2  H           0       1.206   1.449  -3.254  0.00  0.00     0.174 HD
ATOM      3  H           0       0.132   2.519  -2.530  0.00  0.00     0.174 HD
ATOM      4  C           0       0.209   0.723  -1.710  0.00  0.00     0.672 C 
ATOM      5  N           0       0.766  -0.542  -1.731  0.00  0.00    -0.218 N 
ATOM      6  C           0       0.867  -1.277  -0.473  0.00  0.00     0.151 C 
ATOM      7  C           0      -0.449  -1.329   0.278  0.00  0.00     0.180 C 
ATOM      8  N           0      -1.326  -2.340  -0.349  0.00  0.00    -0.216 N 
ATOM      9  C           0      -2.603  -1.834  -0.357  0.00  0.00     0.670 C 
ATOM     10  N           0      -3.678  -2.560  -0.493  0.00  0.00    -0.235 N 
ATOM     11  H           0      -3.603  -3.521  -0.598  0.00  0.00     0.174 HD
ATOM     12  H           0      -4.551  -2.138  -0.489  0.00  0.00     0.174 HD
ATOM     13  C           0      -1.259  -0.046   0.202  0.00  0.00     0.217 C 
ATOM     14  N           0      -2.609  -0.470  -0.203  0.00  0.00    -0.191 N 
ATOM     15  N           0      -0.717   0.952  -0.721  0.00  0.00    -0.179 N 
ATOM     16  C           0      -1.311   2.242  -0.340  0.00  0.00     0.106 C 
ATOM     17  C           0      -2.554   2.517  -1.189  0.00  0.00     0.033 C 
ATOM     18  C           0      -1.701   2.129   1.149  0.00  0.00     0.098 C 
ATOM     19  C           0      -1.320   0.680   1.560  0.00  0.00     0.210 C 
ATOM     20  H           0       1.081  -0.933  -2.561  0.00  0.00     0.178 HD
ATOM     21  H           0      -1.050  -3.204  -0.693  0.00  0.00     0.178 HD
ATOM     22  H           0      -3.372   0.114  -0.335  0.00  0.00     0.180 HD
ENDROOT
BRANCH   6  23
ATOM     23  C           0       1.914  -0.599   0.413  0.00  0.00     0.206 C 
BRANCH  23  24
ATOM     24  O           0       3.221  -0.709  -0.210  0.00  0.00    -0.320 OA
BRANCH  24  25
ATOM     25  C           0       4.299  -0.182   0.392  0.00  0.00     0.254 C 
ATOM     26  C           0       5.655  -0.296  -0.255  0.00  0.00     0.126 C 
ATOM     27  O           0       4.181   0.384   1.453  0.00  0.00    -0.266 OA
ENDBRANCH  24  25
ENDBRANCH  23  24
ENDBRANCH   6  23
BRANCH  19  28
ATOM     28  O           0      -2.323   0.112   2.405  0.00  0.00    -0.362 OA
ATOM     29  H           0      -2.366   0.663   3.198  0.00  0.00     0.213 HD
ENDBRANCH  19  28
BRANCH  19  30
ATOM     30  O           0      -0.042   0.655   2.201  0.00  0.00    -0.362 OA
ATOM     31  H           0      -0.118   1.199   2.997  0.00  0.00     0.213 HD
ENDBRANCH  19  30
TORSDOF 5
