REMARK  4 active torsions:
REMARK  status: ('A' for Active; 'I' for Inactive)
REMARK    1  A    between atoms: C_6  and  C_7 
REMARK    2  A    between atoms: C_7  and  O_8 
REMARK    3  A    between atoms: O_8  and  C_9 
REMARK       I    between atoms: C_9  and  N_10 
REMARK    4  A    between atoms: C_23  and  O_24 
ROOT
ATOM      1  N           0       0.391   0.085  -3.013  0.00  0.00    -0.235 N 
ATOM      2  H           0       1.018  -0.496  -3.471  0.00  0.00     0.174 HD
ATOM      3  H           0       0.022   0.857  -3.470  0.00  0.00     0.174 HD
ATOM      4  C           0       0.039  -0.174  -1.785  0.00  0.00     0.672 C 
ATOM      5  N           0       0.533  -1.266  -1.092  0.00  0.00    -0.218 N 
ATOM      6  C           0       0.628  -1.178   0.362  0.00  0.00     0.151 C 
ATOM      7  C           0      -0.669  -0.726   1.006  0.00  0.00     0.177 C 
ATOM      8  N           0      -1.615  -1.858   1.044  0.00  0.00    -0.216 N 
ATOM      9  C           0      -2.761  -1.491   0.386  0.00  0.00     0.670 C 
ATOM     10  N           0      -3.709  -2.319   0.049  0.00  0.00    -0.235 N 
ATOM     11  H           0      -3.629  -3.262   0.264  0.00  0.00     0.174 HD
ATOM     12  H           0      -4.496  -1.993  -0.416  0.00  0.00     0.174 HD
ATOM     13  C           0      -1.407   0.349   0.225  0.00  0.00     0.187 C 
ATOM     14  N           0      -2.786  -0.142   0.124  0.00  0.00    -0.194 N 
ATOM     15  N           0      -0.838   0.620  -1.094  0.00  0.00    -0.186 N 
ATOM     16  C           0      -1.377   1.935  -1.487  0.00  0.00     0.147 C 
ATOM     17  C           0      -1.384   2.755  -0.176  0.00  0.00     0.057 C 
ATOM     18  C           0      -1.393   1.704   0.949  0.00  0.00     0.172 C 
ATOM     19  H           0       0.809  -2.069  -1.561  0.00  0.00     0.178 HD
ATOM     20  H           0      -1.454  -2.717   1.464  0.00  0.00     0.178 HD
ATOM     21  H           0      -3.570   0.388  -0.091  0.00  0.00     0.180 HD
ENDROOT
BRANCH   6  22
ATOM     22  C           0       1.732  -0.184   0.727  0.00  0.00     0.208 C 
BRANCH  22  23
ATOM     23  O           0       3.014  -0.699   0.281  0.00  0.00    -0.302 OA
BRANCH  23  24
ATOM     24  C           0       4.137   0.013   0.496  0.00  0.00     0.358 C 
ATOM     25  N           0       5.327  -0.465   0.082  0.00  0.00    -0.346 N 
ATOM     26  H           0       5.375  -1.322  -0.370  0.00  0.00     0.161 HD
ATOM     27  H           0       6.136   0.048   0.237  0.00  0.00     0.161 HD
ATOM     28  O           0       4.077   1.086   1.062  0.00  0.00    -0.239 OA
ENDBRANCH  23  24
ENDBRANCH  22  23
ENDBRANCH   6  22
BRANCH  18  29
ATOM     29  O           0      -2.570   1.838   1.748  0.00  0.00    -0.391 OA
ATOM     30  H           0      -2.543   2.722   2.139  0.00  0.00     0.210 HD
ENDBRANCH  18  29
TORSDOF 4
