REMARK  6 active torsions:
REMARK  status: ('A' for Active; 'I' for Inactive)
REMARK    1  A    between atoms: C_6  and  C_7 
REMARK    2  A    between atoms: C_7  and  O_8 
REMARK    3  A    between atoms: O_8  and  C_9 
REMARK    4  A    between atoms: C_9  and  C_10 
REMARK    5  A    between atoms: C_25  and  O_26 
REMARK    6  A    between atoms: C_25  and  O_27 
ROOT
ATOM      1  N           0      -0.080   0.090  -3.209  0.00  0.00    -0.235 N 
ATOM      2  H           0       0.585  -0.442  -3.672  0.00  0.00     0.174 HD
ATOM      3  H           0      -0.492   0.847  -3.654  0.00  0.00     0.174 HD
ATOM      4  C           0      -0.425  -0.215  -1.989  0.00  0.00     0.672 C 
ATOM      5  N           0       0.129  -1.288  -1.314  0.00  0.00    -0.218 N 
ATOM      6  C           0       0.207  -1.224   0.143  0.00  0.00     0.151 C 
ATOM      7  C           0      -1.119  -0.865   0.784  0.00  0.00     0.180 C 
ATOM      8  N           0      -1.998  -2.054   0.778  0.00  0.00    -0.216 N 
ATOM      9  C           0      -3.271  -1.628   0.486  0.00  0.00     0.670 C 
ATOM     10  N           0      -4.350  -2.312   0.743  0.00  0.00    -0.235 N 
ATOM     11  H           0      -4.283  -3.181   1.168  0.00  0.00     0.174 HD
ATOM     12  H           0      -5.220  -1.952   0.510  0.00  0.00     0.174 HD
ATOM     13  C           0      -1.916   0.181   0.020  0.00  0.00     0.217 C 
ATOM     14  N           0      -3.266  -0.392  -0.112  0.00  0.00    -0.191 N 
ATOM     15  N           0      -1.356   0.509  -1.292  0.00  0.00    -0.183 N 
ATOM     16  C           0      -1.961   1.801  -1.662  0.00  0.00     0.150 C 
ATOM     17  C           0      -2.014   2.594  -0.334  0.00  0.00     0.093 C 
ATOM     18  C           0      -1.987   1.517   0.780  0.00  0.00     0.209 C 
ATOM     19  H           0       0.457  -2.064  -1.796  0.00  0.00     0.178 HD
ATOM     20  H           0      -1.726  -2.969   0.950  0.00  0.00     0.178 HD
ATOM     21  H           0      -4.023   0.033  -0.544  0.00  0.00     0.180 HD
ENDROOT
BRANCH   6  22
ATOM     22  C           0       1.244  -0.169   0.536  0.00  0.00     0.206 C 
BRANCH  22  23
ATOM     23  O           0       2.559  -0.595   0.092  0.00  0.00    -0.319 OA
BRANCH  23  24
ATOM     24  C           0       3.631   0.179   0.329  0.00  0.00     0.262 C 
ATOM     25  O           0       3.500   1.229   0.912  0.00  0.00    -0.265 OA
BRANCH  24  26
ATOM     26  C           0       4.996  -0.263  -0.131  0.00  0.00     0.077 C 
ATOM     27  C           0       6.033   0.791   0.262  0.00  0.00     0.020 C 
ATOM     28  C           0       5.350  -1.597   0.529  0.00  0.00     0.020 C 
ENDBRANCH  24  26
ENDBRANCH  23  24
ENDBRANCH  22  23
ENDBRANCH   6  22
BRANCH  18  29
ATOM     29  O           0      -3.177   1.585   1.568  0.00  0.00    -0.362 OA
ATOM     30  H           0      -3.192   2.461   1.976  0.00  0.00     0.213 HD
ENDBRANCH  18  29
BRANCH  18  31
ATOM     31  O           0      -0.831   1.681   1.604  0.00  0.00    -0.362 OA
ATOM     32  H           0      -0.900   2.556   2.011  0.00  0.00     0.213 HD
ENDBRANCH  18  31
TORSDOF 6
