REMARK  12 active torsions:
REMARK  status: ('A' for Active; 'I' for Inactive)
REMARK    1  A    between atoms: C_6  and  C_7 
REMARK    2  A    between atoms: C_7  and  O_8 
REMARK    3  A    between atoms: O_8  and  C_9 
REMARK       I    between atoms: C_9  and  N_10 
REMARK    4  A    between atoms: N_10  and  C_11 
REMARK    5  A    between atoms: C_11  and  C_12 
REMARK    6  A    between atoms: C_12  and  C_13 
REMARK    7  A    between atoms: C_13  and  C_14 
REMARK    8  A    between atoms: C_14  and  C_15 
REMARK    9  A    between atoms: C_15  and  C_16 
REMARK   10  A    between atoms: C_16  and  N_17 
REMARK   11  A    between atoms: C_33  and  O_34 
REMARK   12  A    between atoms: C_33  and  O_35 
ROOT
ATOM      1  N           0      -2.012  -0.578  -3.109  0.00  0.00    -0.235 N 
ATOM      2  H           0      -1.357  -1.220  -3.426  0.00  0.00     0.174 HD
ATOM      3  H           0      -2.359   0.098  -3.711  0.00  0.00     0.174 HD
ATOM      4  C           0      -2.429  -0.629  -1.875  0.00  0.00     0.672 C 
ATOM      5  N           0      -1.969  -1.579  -0.980  0.00  0.00    -0.218 N 
ATOM      6  C           0      -1.955  -1.241   0.440  0.00  0.00     0.151 C 
ATOM      7  C           0      -3.287  -0.706   0.927  0.00  0.00     0.180 C 
ATOM      8  N           0      -4.231  -1.831   1.096  0.00  0.00    -0.216 N 
ATOM      9  C           0      -5.462  -1.409   0.657  0.00  0.00     0.670 C 
ATOM     10  N           0      -6.589  -1.980   0.978  0.00  0.00    -0.235 N 
ATOM     11  H           0      -6.591  -2.755   1.562  0.00  0.00     0.174 HD
ATOM     12  H           0      -7.425  -1.630   0.633  0.00  0.00     0.174 HD
ATOM     13  C           0      -3.987   0.212  -0.063  0.00  0.00     0.217 C 
ATOM     14  N           0      -5.359  -0.311  -0.160  0.00  0.00    -0.191 N 
ATOM     15  N           0      -3.349   0.257  -1.379  0.00  0.00    -0.183 N 
ATOM     16  C           0      -3.862   1.482  -2.019  0.00  0.00     0.150 C 
ATOM     17  C           0      -3.931   2.515  -0.869  0.00  0.00     0.093 C 
ATOM     18  C           0      -4.017   1.670   0.427  0.00  0.00     0.209 C 
ATOM     19  H           0      -1.663  -2.447  -1.289  0.00  0.00     0.178 HD
ATOM     20  H           0      -4.019  -2.708   1.452  0.00  0.00     0.178 HD
ATOM     21  H           0      -6.071   0.058  -0.707  0.00  0.00     0.180 HD
ENDROOT
BRANCH   6  22
ATOM     22  C           0      -0.879  -0.181   0.686  0.00  0.00     0.208 C 
BRANCH  22  23
ATOM     23  O           0       0.429  -0.745   0.405  0.00  0.00    -0.302 OA
BRANCH  23  24
ATOM     24  C           0       1.534   0.010   0.552  0.00  0.00     0.360 C 
ATOM     25  N           0       2.748  -0.513   0.292  0.00  0.00    -0.337 N 
ATOM     26  H           0       2.826  -1.434  -0.003  0.00  0.00     0.164 HD
ATOM     27  O           0       1.436   1.164   0.921  0.00  0.00    -0.239 OA
BRANCH  25  28
ATOM     28  C           0       3.950   0.309   0.452  0.00  0.00     0.125 C 
BRANCH  28  29
ATOM     29  C           0       5.186  -0.519   0.095  0.00  0.00     0.020 C 
BRANCH  29  30
ATOM     30  C           0       6.441   0.339   0.263  0.00  0.00     0.002 C 
BRANCH  30  31
ATOM     31  C           0       7.677  -0.489  -0.095  0.00  0.00     0.002 C 
BRANCH  31  32
ATOM     32  C           0       8.932   0.370   0.073  0.00  0.00     0.027 C 
BRANCH  32  33
ATOM     33  C           0      10.168  -0.458  -0.285  0.00  0.00     0.229 C 
BRANCH  33  34
ATOM     34  N           0      11.373   0.366  -0.124  0.00  0.00    -0.079 N 
ATOM     35  H           0      12.188  -0.180  -0.360  0.00  0.00     0.274 HD
ATOM     36  H           0      11.317   1.167  -0.735  0.00  0.00     0.274 HD
ATOM     37  H           0      11.442   0.677   0.833  0.00  0.00     0.274 HD
ENDBRANCH  33  34
ENDBRANCH  32  33
ENDBRANCH  31  32
ENDBRANCH  30  31
ENDBRANCH  29  30
ENDBRANCH  28  29
ENDBRANCH  25  28
ENDBRANCH  23  24
ENDBRANCH  22  23
ENDBRANCH   6  22
BRANCH  18  38
ATOM     38  O           0      -5.236   1.943   1.120  0.00  0.00    -0.362 OA
ATOM     39  H           0      -5.220   2.881   1.354  0.00  0.00     0.213 HD
ENDBRANCH  18  38
BRANCH  18  40
ATOM     40  O           0      -2.893   1.934   1.269  0.00  0.00    -0.362 OA
ATOM     41  H           0      -2.931   2.873   1.499  0.00  0.00     0.213 HD
ENDBRANCH  18  40
TORSDOF 12
