REMARK  7 active torsions:
REMARK  status: ('A' for Active; 'I' for Inactive)
REMARK    1  A    between atoms: C_6  and  C_7 
REMARK    2  A    between atoms: C_7  and  O_8 
REMARK    3  A    between atoms: O_8  and  C_9 
REMARK       I    between atoms: C_9  and  N_10 
REMARK    4  A    between atoms: C_22  and  C_23 
REMARK    5  A    between atoms: C_23  and  C_24 
REMARK    6  A    between atoms: C_27  and  O_28 
REMARK    7  A    between atoms: C_27  and  O_29 
ROOT
ATOM      1  N           0      -0.788   0.632   3.005  0.00  0.00    -0.235 N 
ATOM      2  H           0      -1.575   0.624   3.572  0.00  0.00     0.174 HD
ATOM      3  H           0      -0.024   1.181   3.243  0.00  0.00     0.174 HD
ATOM      4  C           0      -0.754  -0.100   1.927  0.00  0.00     0.672 C 
ATOM      5  N           0      -1.815  -0.904   1.549  0.00  0.00    -0.218 N 
ATOM      6  C           0      -2.000  -1.182   0.128  0.00  0.00     0.151 C 
ATOM      7  C           0      -0.735  -1.684  -0.540  0.00  0.00     0.180 C 
ATOM      8  N           0      -0.526  -3.103  -0.182  0.00  0.00    -0.216 N 
ATOM      9  C           0       0.819  -3.284   0.028  0.00  0.00     0.670 C 
ATOM     10  N           0       1.414  -4.443   0.003  0.00  0.00    -0.235 N 
ATOM     11  H           0       0.902  -5.248  -0.172  0.00  0.00     0.174 HD
ATOM     12  H           0       2.370  -4.501   0.160  0.00  0.00     0.174 HD
ATOM     13  C           0       0.535  -0.996  -0.062  0.00  0.00     0.217 C 
ATOM     14  N           0       1.459  -2.093   0.267  0.00  0.00    -0.191 N 
ATOM     15  N           0       0.332  -0.118   1.092  0.00  0.00    -0.183 N 
ATOM     16  C           0       1.510   0.768   1.118  0.00  0.00     0.155 C 
ATOM     17  C           0       1.797   1.070  -0.372  0.00  0.00     0.081 C 
ATOM     18  C           0       1.150  -0.103  -1.152  0.00  0.00     0.214 C 
ATOM     19  H           0      -2.419  -1.274   2.212  0.00  0.00     0.178 HD
ATOM     20  H           0      -1.214  -3.782  -0.109  0.00  0.00     0.178 HD
ATOM     21  H           0       2.367  -1.993   0.595  0.00  0.00     0.180 HD
ENDROOT
BRANCH   6  22
ATOM     22  C           0      -2.450   0.102  -0.572  0.00  0.00     0.208 C 
BRANCH  22  23
ATOM     23  O           0      -3.758   0.492  -0.076  0.00  0.00    -0.302 OA
BRANCH  23  24
ATOM     24  C           0      -4.356   1.600  -0.552  0.00  0.00     0.358 C 
ATOM     25  N           0      -5.570   1.961  -0.091  0.00  0.00    -0.346 N 
ATOM     26  H           0      -6.012   1.423   0.584  0.00  0.00     0.161 HD
ATOM     27  H           0      -6.001   2.759  -0.434  0.00  0.00     0.161 HD
ATOM     28  O           0      -3.802   2.274  -1.397  0.00  0.00    -0.239 OA
ENDBRANCH  23  24
ENDBRANCH  22  23
ENDBRANCH   6  22
BRANCH  18  29
ATOM     29  O           0       2.144  -0.819  -1.887  0.00  0.00    -0.362 OA
ATOM     30  H           0       2.531  -0.195  -2.517  0.00  0.00     0.213 HD
ENDBRANCH  18  29
BRANCH  18  31
ATOM     31  O           0       0.133   0.383  -2.029  0.00  0.00    -0.362 OA
ATOM     32  H           0       0.565   0.980  -2.655  0.00  0.00     0.213 HD
ENDBRANCH  18  31
BRANCH  17  33
ATOM     33  C           0       3.305   1.107  -0.626  0.00  0.00     0.125 C 
BRANCH  33  34
ATOM     34  C           0       3.908   2.282   0.100  0.00  0.00     0.173 C 
ATOM     35  O           0       3.197   3.021   0.759  0.00  0.00    -0.648 OA
ATOM     36  O           0       5.107   2.493   0.027  0.00  0.00    -0.648 OA
ENDBRANCH  33  34
ENDBRANCH  17  33
TORSDOF 7
