REMARK  21 active torsions:
REMARK  status: ('A' for Active; 'I' for Inactive)
REMARK    1  A    between atoms: C_6  and  C_7 
REMARK    2  A    between atoms: C_7  and  O_8 
REMARK    3  A    between atoms: O_8  and  C_9 
REMARK       I    between atoms: C_9  and  N_10 
REMARK    4  A    between atoms: N_10  and  C_11 
REMARK    5  A    between atoms: C_11  and  C_12 
REMARK    6  A    between atoms: C_12  and  N_13 
REMARK       I    between atoms: N_13  and  C_14 
REMARK    7  A    between atoms: C_14  and  C_15 
REMARK    8  A    between atoms: C_15  and  C_16 
REMARK    9  A    between atoms: C_16  and  N_17 
REMARK   10  A    between atoms: C_20  and  C_21 
REMARK   11  A    between atoms: C_21  and  C_22 
REMARK   12  A    between atoms: C_22  and  C_23 
REMARK   13  A    between atoms: C_23  and  C_24 
REMARK   14  A    between atoms: C_24  and  C_25 
REMARK   15  A    between atoms: C_25  and  C_26 
REMARK   16  A    between atoms: C_26  and  C_27 
REMARK   17  A    between atoms: C_27  and  C_28 
REMARK       I    between atoms: C_28  and  N_29 
REMARK   18  A    between atoms: N_29  and  C_30 
REMARK   19  A    between atoms: C_30  and  C_31 
REMARK   20  A    between atoms: C_55  and  O_56 
REMARK   21  A    between atoms: C_55  and  O_57 
ROOT
ATOM      1  C           0       3.543  -2.061   0.865  0.00  0.00     0.142 C 
ENDROOT
BRANCH   1   2
ATOM      2  C           0       4.700  -1.729  -0.079  0.00  0.00     0.144 C 
BRANCH   2   3
ATOM      3  N           0       5.820  -1.184   0.693  0.00  0.00    -0.335 N 
ATOM      4  C           0       6.955  -0.818   0.066  0.00  0.00     0.360 C 
ATOM      5  O           0       7.050  -0.939  -1.140  0.00  0.00    -0.239 OA
ATOM      6  H           0       5.744  -1.088   1.655  0.00  0.00     0.164 HD
BRANCH   4   7
ATOM      7  O           0       7.985  -0.318   0.775  0.00  0.00    -0.302 OA
BRANCH   7   8
ATOM      8  C           0       9.208   0.076   0.100  0.00  0.00     0.208 C 
BRANCH   8   9
ATOM      9  C           0      10.209   0.607   1.128  0.00  0.00     0.151 C 
ATOM     10  N           0       9.674   1.831   1.719  0.00  0.00    -0.218 N 
ATOM     11  C           0       9.597   2.963   0.926  0.00  0.00     0.672 C 
ATOM     12  H           0       9.381   1.849   2.644  0.00  0.00     0.178 HD
ATOM     13  N           0       8.701   3.889   1.125  0.00  0.00    -0.235 N 
ATOM     14  N           0      10.518   3.044  -0.084  0.00  0.00    -0.183 N 
ATOM     15  H           0       8.061   3.797   1.848  0.00  0.00     0.174 HD
ATOM     16  H           0       8.678   4.671   0.553  0.00  0.00     0.174 HD
ATOM     17  C           0      11.646   2.140  -0.316  0.00  0.00     0.217 C 
ATOM     18  C           0      10.559   4.010  -1.197  0.00  0.00     0.150 C 
ATOM     19  C           0      11.544   0.825   0.441  0.00  0.00     0.180 C 
ATOM     20  C           0      11.691   1.925  -1.838  0.00  0.00     0.209 C 
ATOM     21  N           0      12.908   2.744   0.142  0.00  0.00    -0.191 N 
ATOM     22  N           0      12.607   0.921   1.464  0.00  0.00    -0.216 N 
ATOM     23  C           0      13.480   1.903   1.064  0.00  0.00     0.670 C 
ATOM     24  H           0      12.675   0.387   2.271  0.00  0.00     0.178 HD
ATOM     25  N           0      14.700   2.022   1.506  0.00  0.00    -0.235 N 
ATOM     26  H           0      15.043   1.392   2.159  0.00  0.00     0.174 HD
ATOM     27  H           0      15.266   2.740   1.181  0.00  0.00     0.174 HD
ATOM     28  C           0      10.968   3.164  -2.425  0.00  0.00     0.093 C 
ATOM     29  H           0      13.274   3.591  -0.158  0.00  0.00     0.180 HD
BRANCH  20  30
ATOM     30  O           0      13.043   1.872  -2.299  0.00  0.00    -0.362 OA
ATOM     31  H           0      13.007   1.791  -3.261  0.00  0.00     0.213 HD
ENDBRANCH  20  30
BRANCH  20  32
ATOM     32  O           0      10.996   0.728  -2.192  0.00  0.00    -0.362 OA
ATOM     33  H           0      11.007   0.673  -3.157  0.00  0.00     0.213 HD
ENDBRANCH  20  32
ENDBRANCH   8   9
ENDBRANCH   7   8
ENDBRANCH   4   7
ENDBRANCH   2   3
ENDBRANCH   1   2
BRANCH   1  34
ATOM     34  N           0       2.423  -2.605   0.093  0.00  0.00    -0.359 N 
ATOM     35  C           0       1.288  -2.972   0.720  0.00  0.00     0.219 C 
ATOM     36  O           0       1.193  -2.851   1.923  0.00  0.00    -0.274 OA
ATOM     37  H           0       2.499  -2.702  -0.869  0.00  0.00     0.162 HD
BRANCH  35  38
ATOM     38  C           0       0.136  -3.531  -0.074  0.00  0.00     0.123 C 
BRANCH  38  39
ATOM     39  C           0      -1.021  -3.864   0.871  0.00  0.00     0.144 C 
BRANCH  39  40
ATOM     40  N           0      -2.141  -4.408   0.099  0.00  0.00    -0.288 N 
ATOM     41  C           0      -3.108  -3.639  -0.416  0.00  0.00     0.231 A 
ATOM     42  C           0      -4.100  -4.512  -1.152  0.00  0.00     0.087 A 
ATOM     43  O           0      -3.175  -2.433  -0.313  0.00  0.00    -0.273 OA
ATOM     44  C           0      -3.538  -5.936  -0.964  0.00  0.00     0.117 A 
ATOM     45  C           0      -2.284  -5.717  -0.146  0.00  0.00     0.227 A 
ATOM     46  O           0      -1.529  -6.588   0.229  0.00  0.00    -0.273 OA
BRANCH  42  47
ATOM     47  C           0      -5.488  -4.393  -0.520  0.00  0.00     0.014 C 
BRANCH  47  48
ATOM     48  C           0      -6.073  -3.013  -0.828  0.00  0.00     0.001 C 
BRANCH  48  49
ATOM     49  C           0      -7.461  -2.895  -0.196  0.00  0.00     0.000 C 
BRANCH  49  50
ATOM     50  C           0      -8.046  -1.515  -0.504  0.00  0.00     0.000 C 
BRANCH  50  51
ATOM     51  C           0      -9.434  -1.396   0.129  0.00  0.00     0.000 C 
BRANCH  51  52
ATOM     52  C           0     -10.019  -0.016  -0.180  0.00  0.00     0.009 C 
BRANCH  52  53
ATOM     53  C           0     -11.407   0.102   0.453  0.00  0.00     0.103 C 
BRANCH  53  54
ATOM     54  C           0     -11.983   1.461   0.149  0.00  0.00     0.217 C 
ATOM     55  N           0     -13.205   1.793   0.608  0.00  0.00    -0.361 N 
ATOM     56  H           0     -13.715   1.157   1.134  0.00  0.00     0.162 HD
ATOM     57  O           0     -11.345   2.257  -0.509  0.00  0.00    -0.274 OA
BRANCH  55  58
ATOM     58  C           0     -13.765   3.114   0.313  0.00  0.00     0.128 C 
BRANCH  58  59
ATOM     59  C           0     -15.153   3.233   0.945  0.00  0.00     0.012 C 
ATOM     60  C           0     -15.744   4.659   0.709  0.00  0.00     0.014 C 
ATOM     61  C           0     -15.611   4.852  -0.840  0.00  0.00    -0.025 C 
ATOM     62  C           0     -17.284   4.345   0.801  0.00  0.00     0.017 C 
ATOM     63  C           0     -16.477   4.051  -1.430  0.00  0.00    -0.026 C 
ATOM     64  C           0     -17.230   3.270  -0.346  0.00  0.00     0.009 C 
ATOM     65  C           0     -16.158   2.294   0.234  0.00  0.00     0.015 C 
ENDBRANCH  58  59
ENDBRANCH  55  58
ENDBRANCH  53  54
ENDBRANCH  52  53
ENDBRANCH  51  52
ENDBRANCH  50  51
ENDBRANCH  49  50
ENDBRANCH  48  49
ENDBRANCH  47  48
ENDBRANCH  42  47
ENDBRANCH  39  40
ENDBRANCH  38  39
ENDBRANCH  35  38
ENDBRANCH   1  34
TORSDOF 21
