REMARK  13 active torsions:
REMARK  status: ('A' for Active; 'I' for Inactive)
REMARK    1  A    between atoms: C_6  and  C_7 
REMARK    2  A    between atoms: C_7  and  O_8 
REMARK    3  A    between atoms: O_8  and  C_9 
REMARK       I    between atoms: C_9  and  N_10 
REMARK    4  A    between atoms: N_10  and  C_11 
REMARK    5  A    between atoms: C_11  and  C_12 
REMARK    6  A    between atoms: C_12  and  N_13 
REMARK       I    between atoms: N_13  and  C_14 
REMARK    7  A    between atoms: C_14  and  C_15 
REMARK    8  A    between atoms: C_15  and  C_16 
REMARK    9  A    between atoms: C_16  and  N_17 
REMARK   10  A    between atoms: C_19  and  C_20 
REMARK   11  A    between atoms: C_20  and  C_21 
REMARK   12  A    between atoms: C_41  and  O_42 
REMARK   13  A    between atoms: C_41  and  O_43 
ROOT
ATOM      1  C           0      11.216  -1.518   0.892  0.00  0.00     0.094 C 
ATOM      2  C           0      12.468  -2.055   0.336  0.00  0.00    -0.117 C 
ATOM      3  C           0      13.467  -2.482  -0.109  0.00  0.00     0.012 C 
ENDROOT
BRANCH   1   4
ATOM      4  C           0      11.050  -0.059   0.463  0.00  0.00     0.026 C 
BRANCH   4   5
ATOM      5  C           0       9.748   0.498   1.042  0.00  0.00     0.088 A 
ATOM      6  C           0       8.552  -0.192   0.424  0.00  0.00     0.231 A 
ATOM      7  N           0       7.806   0.712  -0.222  0.00  0.00    -0.288 N 
ATOM      8  O           0       8.308  -1.377   0.502  0.00  0.00    -0.273 OA
ATOM      9  C           0       8.284   1.962  -0.173  0.00  0.00     0.227 A 
ATOM     10  C           0       9.562   1.975   0.636  0.00  0.00     0.117 A 
ATOM     11  O           0       7.769   2.931  -0.688  0.00  0.00    -0.273 OA
BRANCH   7  12
ATOM     12  C           0       6.572   0.363  -0.930  0.00  0.00     0.144 C 
BRANCH  12  13
ATOM     13  C           0       5.385   0.476   0.028  0.00  0.00     0.123 C 
BRANCH  13  14
ATOM     14  C           0       4.115   0.117  -0.701  0.00  0.00     0.219 C 
ATOM     15  N           0       2.935   0.146  -0.052  0.00  0.00    -0.359 N 
ATOM     16  H           0       2.902   0.399   0.884  0.00  0.00     0.162 HD
ATOM     17  O           0       4.157  -0.200  -1.871  0.00  0.00    -0.274 OA
BRANCH  15  18
ATOM     18  C           0       1.701  -0.204  -0.760  0.00  0.00     0.142 C 
BRANCH  18  19
ATOM     19  C           0       0.513  -0.090   0.198  0.00  0.00     0.144 C 
BRANCH  19  20
ATOM     20  N           0      -0.721  -0.440  -0.510  0.00  0.00    -0.335 N 
ATOM     21  C           0      -1.902  -0.410   0.139  0.00  0.00     0.360 C 
ATOM     22  O           0      -1.943  -0.093   1.311  0.00  0.00    -0.239 OA
ATOM     23  H           0      -0.688  -0.693  -1.446  0.00  0.00     0.164 HD
BRANCH  21  24
ATOM     24  O           0      -3.036  -0.732  -0.512  0.00  0.00    -0.302 OA
BRANCH  24  25
ATOM     25  C           0      -4.308  -0.700   0.187  0.00  0.00     0.208 C 
BRANCH  25  26
ATOM     26  C           0      -5.428  -1.105  -0.773  0.00  0.00     0.151 C 
ATOM     27  N           0      -5.532  -0.098  -1.826  0.00  0.00    -0.218 N 
ATOM     28  C           0      -6.013   1.155  -1.490  0.00  0.00     0.672 C 
ATOM     29  H           0      -5.272  -0.304  -2.738  0.00  0.00     0.178 HD
ATOM     30  N           0      -5.665   2.229  -2.141  0.00  0.00    -0.235 N 
ATOM     31  N           0      -6.875   1.195  -0.426  0.00  0.00    -0.183 N 
ATOM     32  H           0      -5.049   2.166  -2.887  0.00  0.00     0.174 HD
ATOM     33  H           0      -6.024   3.092  -1.881  0.00  0.00     0.174 HD
ATOM     34  C           0      -7.440   0.047   0.287  0.00  0.00     0.217 C 
ATOM     35  C           0      -7.385   2.382   0.283  0.00  0.00     0.150 C 
ATOM     36  C           0      -6.713  -1.261   0.015  0.00  0.00     0.180 C 
ATOM     37  C           0      -7.397   0.430   1.776  0.00  0.00     0.209 C 
ATOM     38  N           0      -8.831  -0.198  -0.127  0.00  0.00    -0.191 N 
ATOM     39  N           0      -7.681  -2.045  -0.782  0.00  0.00    -0.216 N 
ATOM     40  C           0      -8.921  -1.484  -0.597  0.00  0.00     0.670 C 
ATOM     41  H           0      -7.477  -2.814  -1.336  0.00  0.00     0.178 HD
ATOM     42  N           0     -10.045  -2.099  -0.838  0.00  0.00    -0.235 N 
ATOM     43  H           0     -10.038  -3.010  -1.170  0.00  0.00     0.174 HD
ATOM     44  H           0     -10.889  -1.645  -0.685  0.00  0.00     0.174 HD
ATOM     45  C           0      -7.358   1.980   1.776  0.00  0.00     0.093 C 
ATOM     46  H           0      -9.560   0.439  -0.074  0.00  0.00     0.180 HD
BRANCH  37  47
ATOM     47  O           0      -8.566  -0.039   2.450  0.00  0.00    -0.362 OA
ATOM     48  H           0      -8.508   0.276   3.362  0.00  0.00     0.213 HD
ENDBRANCH  37  47
BRANCH  37  49
ATOM     49  O           0      -6.219  -0.097   2.391  0.00  0.00    -0.362 OA
ATOM     50  H           0      -6.215   0.220   3.305  0.00  0.00     0.213 HD
ENDBRANCH  37  49
ENDBRANCH  25  26
ENDBRANCH  24  25
ENDBRANCH  21  24
ENDBRANCH  19  20
ENDBRANCH  18  19
ENDBRANCH  15  18
ENDBRANCH  13  14
ENDBRANCH  12  13
ENDBRANCH   7  12
ENDBRANCH   4   5
ENDBRANCH   1   4
TORSDOF 13
