REMARK  4 active torsions:
REMARK  status: ('A' for Active; 'I' for Inactive)
REMARK    1  A    between atoms: C_6  and  C_7 
REMARK    2  A    between atoms: C_7  and  O_8 
REMARK    3  A    between atoms: O_8  and  C_9 
REMARK       I    between atoms: C_9  and  N_10 
REMARK    4  A    between atoms: C_25  and  O_26 
ROOT
ATOM      1  N           0      -0.328   0.010  -2.975  0.00  0.00    -0.235 N 
ATOM      2  H           0       0.300  -0.583  -3.418  0.00  0.00     0.174 HD
ATOM      3  H           0      -0.716   0.754  -3.460  0.00  0.00     0.174 HD
ATOM      4  C           0      -0.652  -0.198  -1.730  0.00  0.00     0.672 C 
ATOM      5  N           0      -0.129  -1.250  -0.999  0.00  0.00    -0.218 N 
ATOM      6  C           0       0.004  -1.093   0.446  0.00  0.00     0.151 C 
ATOM      7  C           0      -1.282  -0.627   1.102  0.00  0.00     0.177 C 
ATOM      8  N           0      -2.206  -1.771   1.232  0.00  0.00    -0.216 N 
ATOM      9  C           0      -3.375  -1.464   0.584  0.00  0.00     0.670 C 
ATOM     10  N           0      -4.316  -2.327   0.323  0.00  0.00    -0.235 N 
ATOM     11  H           0      -4.212  -3.254   0.592  0.00  0.00     0.174 HD
ATOM     12  H           0      -5.120  -2.044  -0.139  0.00  0.00     0.174 HD
ATOM     13  C           0      -2.062   0.387   0.284  0.00  0.00     0.187 C 
ATOM     14  N           0      -3.433  -0.133   0.243  0.00  0.00    -0.194 N 
ATOM     15  N           0      -1.531   0.617  -1.059  0.00  0.00    -0.186 N 
ATOM     16  C           0      -2.088   1.898  -1.517  0.00  0.00     0.147 C 
ATOM     17  C           0      -2.435   2.709  -0.250  0.00  0.00     0.057 C 
ATOM     18  C           0      -2.055   1.786   0.930  0.00  0.00     0.172 C 
ATOM     19  H           0       0.143  -2.072  -1.437  0.00  0.00     0.178 HD
ATOM     20  H           0      -2.017  -2.601   1.697  0.00  0.00     0.178 HD
ATOM     21  H           0      -4.232   0.368   0.017  0.00  0.00     0.180 HD
ENDROOT
BRANCH   6  22
ATOM     22  C           0       1.103  -0.069   0.734  0.00  0.00     0.208 C 
BRANCH  22  23
ATOM     23  O           0       2.380  -0.588   0.278  0.00  0.00    -0.302 OA
BRANCH  23  24
ATOM     24  C           0       3.498   0.147   0.429  0.00  0.00     0.362 C 
ATOM     25  N           0       4.683  -0.335   0.005  0.00  0.00    -0.337 N 
ATOM     26  C           0       5.900   0.464   0.169  0.00  0.00     0.154 C 
ATOM     27  C           0       4.755  -1.659  -0.619  0.00  0.00     0.154 C 
ATOM     28  O           0       3.439   1.245   0.946  0.00  0.00    -0.238 OA
ENDBRANCH  23  24
ENDBRANCH  22  23
ENDBRANCH   6  22
BRANCH  18  29
ATOM     29  O           0      -0.761   2.118   1.438  0.00  0.00    -0.391 OA
ATOM     30  H           0      -0.811   3.030   1.756  0.00  0.00     0.210 HD
ENDBRANCH  18  29
TORSDOF 4
