REMARK  4 active torsions:
REMARK  status: ('A' for Active; 'I' for Inactive)
REMARK    1  A    between atoms: C_6  and  C_7 
REMARK    2  A    between atoms: C_7  and  O_8 
REMARK    3  A    between atoms: O_8  and  C_9 
REMARK       I    between atoms: C_9  and  N_10 
REMARK    4  A    between atoms: C_25  and  O_26 
ROOT
ATOM      1  N           0      -0.134  -0.144  -3.000  0.00  0.00    -0.235 N 
ATOM      2  H           0       0.521  -0.739  -3.398  0.00  0.00     0.174 HD
ATOM      3  H           0      -0.532   0.563  -3.531  0.00  0.00     0.174 HD
ATOM      4  C           0      -0.482  -0.299  -1.753  0.00  0.00     0.672 C 
ATOM      5  N           0       0.054  -1.296  -0.957  0.00  0.00    -0.218 N 
ATOM      6  C           0       0.134  -1.065   0.482  0.00  0.00     0.151 C 
ATOM      7  C           0      -1.185  -0.611   1.076  0.00  0.00     0.177 C 
ATOM      8  N           0      -2.082  -1.774   1.220  0.00  0.00    -0.216 N 
ATOM      9  C           0      -3.238  -1.523   0.526  0.00  0.00     0.670 C 
ATOM     10  N           0      -4.147  -2.421   0.269  0.00  0.00    -0.235 N 
ATOM     11  H           0      -4.027  -3.334   0.574  0.00  0.00     0.174 HD
ATOM     12  H           0      -4.943  -2.176  -0.228  0.00  0.00     0.174 HD
ATOM     13  C           0      -1.964   0.350   0.193  0.00  0.00     0.187 C 
ATOM     14  N           0      -3.320  -0.208   0.135  0.00  0.00    -0.194 N 
ATOM     15  N           0      -1.398   0.519  -1.145  0.00  0.00    -0.186 N 
ATOM     16  C           0      -1.991   1.764  -1.665  0.00  0.00     0.147 C 
ATOM     17  C           0      -2.043   2.706  -0.439  0.00  0.00     0.057 C 
ATOM     18  C           0      -2.014   1.769   0.783  0.00  0.00     0.172 C 
ATOM     19  H           0       0.367  -2.128  -1.346  0.00  0.00     0.178 HD
ATOM     20  H           0      -1.887  -2.581   1.722  0.00  0.00     0.178 HD
ATOM     21  H           0      -4.124   0.264  -0.133  0.00  0.00     0.180 HD
ENDROOT
BRANCH   6  22
ATOM     22  C           0       1.191   0.008   0.752  0.00  0.00     0.208 C 
BRANCH  22  23
ATOM     23  O           0       2.498  -0.491   0.362  0.00  0.00    -0.302 OA
BRANCH  23  24
ATOM     24  C           0       3.587   0.287   0.510  0.00  0.00     0.362 C 
ATOM     25  N           0       4.800  -0.176   0.148  0.00  0.00    -0.337 N 
ATOM     26  C           0       5.985   0.670   0.309  0.00  0.00     0.154 C 
ATOM     27  C           0       4.933  -1.525  -0.406  0.00  0.00     0.154 C 
ATOM     28  O           0       3.476   1.406   0.970  0.00  0.00    -0.238 OA
ENDBRANCH  23  24
ENDBRANCH  22  23
ENDBRANCH   6  22
BRANCH  18  29
ATOM     29  O           0      -3.202   1.927   1.561  0.00  0.00    -0.391 OA
ATOM     30  H           0      -3.216   2.845   1.865  0.00  0.00     0.210 HD
ENDBRANCH  18  29
TORSDOF 4
