REMARK  5 active torsions:
REMARK  status: ('A' for Active; 'I' for Inactive)
REMARK    1  A    between atoms: C_6  and  C_7 
REMARK    2  A    between atoms: C_7  and  O_8 
REMARK    3  A    between atoms: O_8  and  C_9 
REMARK       I    between atoms: C_9  and  N_10 
REMARK    4  A    between atoms: C_24  and  O_25 
REMARK    5  A    between atoms: C_24  and  O_26 
ROOT
ATOM      1  N           0       0.679  -0.303  -3.110  0.00  0.00    -0.235 N 
ATOM      2  H           0       1.334  -0.900  -3.503  0.00  0.00     0.174 HD
ATOM      3  H           0       0.300   0.417  -3.639  0.00  0.00     0.174 HD
ATOM      4  C           0       0.302  -0.471  -1.874  0.00  0.00     0.672 C 
ATOM      5  N           0       0.809  -1.486  -1.081  0.00  0.00    -0.218 N 
ATOM      6  C           0       0.863  -1.275   0.363  0.00  0.00     0.151 C 
ATOM      7  C           0      -0.462  -0.812   0.936  0.00  0.00     0.180 C 
ATOM      8  N           0      -1.380  -1.967   1.033  0.00  0.00    -0.215 N 
ATOM      9  C           0      -2.632  -1.533   0.672  0.00  0.00     0.672 C 
ATOM     10  N           0      -3.738  -2.153   0.975  0.00  0.00    -0.235 N 
ATOM     11  H           0      -3.707  -2.976   1.488  0.00  0.00     0.174 HD
ATOM     12  H           0      -4.591  -1.792   0.688  0.00  0.00     0.174 HD
ATOM     13  C           0      -1.210   0.175   0.054  0.00  0.00     0.219 C 
ATOM     14  N           0      -2.576  -0.366  -0.048  0.00  0.00    -0.187 N 
ATOM     15  C           0      -3.686   0.241  -0.787  0.00  0.00     0.171 C 
ATOM     16  N           0      -0.616   0.350  -1.273  0.00  0.00    -0.183 N 
ATOM     17  C           0      -1.171   1.616  -1.785  0.00  0.00     0.150 C 
ATOM     18  C           0      -1.222   2.541  -0.546  0.00  0.00     0.093 C 
ATOM     19  C           0      -1.250   1.583   0.672  0.00  0.00     0.210 C 
ATOM     20  H           0       1.119  -2.317  -1.475  0.00  0.00     0.178 HD
ATOM     21  H           0      -1.141  -2.867   1.303  0.00  0.00     0.178 HD
ENDROOT
BRANCH   6  22
ATOM     22  C           0       1.927  -0.219   0.668  0.00  0.00     0.208 C 
BRANCH  22  23
ATOM     23  O           0       3.235  -0.729   0.298  0.00  0.00    -0.302 OA
BRANCH  23  24
ATOM     24  C           0       4.330   0.033   0.478  0.00  0.00     0.358 C 
ATOM     25  N           0       5.545  -0.440   0.134  0.00  0.00    -0.346 N 
ATOM     26  H           0       5.629  -1.329  -0.243  0.00  0.00     0.161 HD
ATOM     27  H           0       6.334   0.109   0.264  0.00  0.00     0.161 HD
ATOM     28  O           0       4.224   1.148   0.951  0.00  0.00    -0.239 OA
ENDBRANCH  23  24
ENDBRANCH  22  23
ENDBRANCH   6  22
BRANCH  19  29
ATOM     29  O           0      -2.451   1.769   1.424  0.00  0.00    -0.362 OA
ATOM     30  H           0      -2.444   2.683   1.740  0.00  0.00     0.213 HD
ENDBRANCH  19  29
BRANCH  19  31
ATOM     31  O           0      -0.105   1.795   1.499  0.00  0.00    -0.362 OA
ATOM     32  H           0      -0.152   2.709   1.813  0.00  0.00     0.213 HD
ENDBRANCH  19  31
TORSDOF 5
