REMARK  5 active torsions:
REMARK  status: ('A' for Active; 'I' for Inactive)
REMARK    1  A    between atoms: C_6  and  C_7 
REMARK    2  A    between atoms: C_7  and  O_8 
REMARK    3  A    between atoms: O_8  and  C_9 
REMARK       I    between atoms: C_9  and  N_10 
REMARK    4  A    between atoms: C_23  and  O_24 
REMARK    5  A    between atoms: C_23  and  O_25 
ROOT
ATOM      1  N           0       0.601  -0.409  -3.119  0.00  0.00    -0.235 N 
ATOM      2  H           0       1.262  -1.026  -3.469  0.00  0.00     0.174 HD
ATOM      3  H           0       0.248   0.296  -3.685  0.00  0.00     0.174 HD
ATOM      4  C           0       0.183  -0.528  -1.890  0.00  0.00     0.672 C 
ATOM      5  N           0       0.652  -1.519  -1.045  0.00  0.00    -0.218 N 
ATOM      6  C           0       0.662  -1.256   0.391  0.00  0.00     0.151 C 
ATOM      7  C           0      -0.676  -0.759   0.903  0.00  0.00     0.180 C 
ATOM      8  N           0      -1.609  -1.900   1.012  0.00  0.00    -0.216 N 
ATOM      9  C           0      -2.844  -1.467   0.595  0.00  0.00     0.670 C 
ATOM     10  N           0      -3.966  -2.064   0.884  0.00  0.00    -0.235 N 
ATOM     11  H           0      -3.961  -2.868   1.427  0.00  0.00     0.174 HD
ATOM     12  H           0      -4.805  -1.704   0.557  0.00  0.00     0.174 HD
ATOM     13  C           0      -1.383   0.203  -0.038  0.00  0.00     0.217 C 
ATOM     14  N           0      -2.751  -0.327  -0.164  0.00  0.00    -0.191 N 
ATOM     15  N           0      -0.745   0.323  -1.349  0.00  0.00    -0.183 N 
ATOM     16  C           0      -1.269   1.575  -1.925  0.00  0.00     0.150 C 
ATOM     17  C           0      -1.349   2.546  -0.722  0.00  0.00     0.093 C 
ATOM     18  C           0      -1.427   1.633   0.528  0.00  0.00     0.209 C 
ATOM     19  H           0       0.965  -2.366  -1.398  0.00  0.00     0.178 HD
ATOM     20  H           0      -1.390  -2.793   1.322  0.00  0.00     0.178 HD
ATOM     21  H           0      -3.465   0.064  -0.691  0.00  0.00     0.180 HD
ENDROOT
BRANCH   6  22
ATOM     22  C           0       1.728  -0.201   0.692  0.00  0.00     0.208 C 
BRANCH  22  23
ATOM     23  O           0       3.041  -0.737   0.384  0.00  0.00    -0.302 OA
BRANCH  23  24
ATOM     24  C           0       4.139   0.020   0.572  0.00  0.00     0.358 C 
ATOM     25  N           0       5.358  -0.478   0.285  0.00  0.00    -0.346 N 
ATOM     26  H           0       5.445  -1.382  -0.057  0.00  0.00     0.161 HD
ATOM     27  H           0       6.149   0.067   0.421  0.00  0.00     0.161 HD
ATOM     28  O           0       4.030   1.152   1.000  0.00  0.00    -0.239 OA
ENDBRANCH  23  24
ENDBRANCH  22  23
ENDBRANCH   6  22
BRANCH  18  29
ATOM     29  O           0      -2.649   1.858   1.233  0.00  0.00    -0.362 OA
ATOM     30  H           0      -2.642   2.783   1.516  0.00  0.00     0.213 HD
ENDBRANCH  18  29
BRANCH  18  31
ATOM     31  O           0      -0.306   1.863   1.384  0.00  0.00    -0.362 OA
ATOM     32  H           0      -0.353   2.788   1.663  0.00  0.00     0.213 HD
ENDBRANCH  18  31
TORSDOF 5
