REMARK  18 active torsions:
REMARK  status: ('A' for Active; 'I' for Inactive)
REMARK    1  A    between atoms: C_6  and  C_7 
REMARK    2  A    between atoms: C_7  and  O_8 
REMARK    3  A    between atoms: O_8  and  C_9 
REMARK       I    between atoms: C_9  and  N_10 
REMARK    4  A    between atoms: N_10  and  C_11 
REMARK    5  A    between atoms: C_11  and  C_12 
REMARK    6  A    between atoms: C_12  and  N_13 
REMARK       I    between atoms: N_13  and  C_14 
REMARK    7  A    between atoms: C_14  and  C_15 
REMARK    8  A    between atoms: C_15  and  C_16 
REMARK    9  A    between atoms: C_16  and  N_17 
REMARK   10  A    between atoms: C_20  and  C_21 
REMARK   11  A    between atoms: C_21  and  C_22 
REMARK   12  A    between atoms: C_22  and  C_23 
REMARK   13  A    between atoms: N_25  and  C_26 
REMARK   14  A    between atoms: C_26  and  C_27 
REMARK   15  A    between atoms: C_27  and  C_28 
REMARK   16  A    between atoms: C_28  and  N_29 
REMARK       I    between atoms: N_29  and  C_30 
REMARK   17  A    between atoms: C_51  and  O_52 
REMARK   18  A    between atoms: C_51  and  O_53 
ROOT
ATOM      1  C           0      -5.696  -0.806   0.107  0.00  0.00     0.360 C 
ATOM      2  N           0      -4.569  -1.160  -0.543  0.00  0.00    -0.335 N 
ATOM      3  O           0      -5.651  -0.517   1.286  0.00  0.00    -0.239 OA
ATOM      4  H           0      -4.605  -1.391  -1.484  0.00  0.00     0.164 HD
ENDROOT
BRANCH   2   5
ATOM      5  C           0      -3.291  -1.196   0.173  0.00  0.00     0.144 C 
BRANCH   5   6
ATOM      6  C           0      -2.181  -1.625  -0.788  0.00  0.00     0.142 C 
BRANCH   6   7
ATOM      7  N           0      -0.903  -1.661  -0.073  0.00  0.00    -0.359 N 
ATOM      8  C           0       0.224  -2.015  -0.723  0.00  0.00     0.219 C 
ATOM      9  O           0       0.179  -2.304  -1.900  0.00  0.00    -0.274 OA
ATOM     10  H           0      -0.867  -1.430   0.869  0.00  0.00     0.162 HD
BRANCH   8  11
ATOM     11  C           0       1.538  -2.052   0.013  0.00  0.00     0.123 C 
BRANCH  11  12
ATOM     12  C           0       2.649  -2.482  -0.948  0.00  0.00     0.145 C 
BRANCH  12  13
ATOM     13  N           0       3.927  -2.517  -0.232  0.00  0.00    -0.281 N 
ATOM     14  C           0       4.783  -1.486  -0.123  0.00  0.00     0.256 A 
ATOM     15  C           0       5.947  -1.928   0.677  0.00  0.00     0.016 A 
ATOM     16  O           0       4.625  -0.378  -0.594  0.00  0.00    -0.267 OA
ATOM     17  C           0       5.730  -3.214   1.000  0.00  0.00     0.087 A 
ATOM     18  C           0       4.426  -3.588   0.411  0.00  0.00     0.251 A 
ATOM     19  O           0       3.895  -4.677   0.494  0.00  0.00    -0.268 OA
BRANCH  15  20
ATOM     20  C           0       7.148  -1.098   1.051  0.00  0.00     0.051 C 
BRANCH  20  21
ATOM     21  C           0       8.168  -1.133  -0.088  0.00  0.00     0.067 C 
BRANCH  21  22
ATOM     22  C           0       9.369  -0.303   0.287  0.00  0.00     0.076 A 
ATOM     23  N           0       9.368   0.982   0.660  0.00  0.00    -0.135 NA
ATOM     24  N           0      10.578   1.345   0.904  0.00  0.00    -0.066 NA
ATOM     25  N           0      11.386   0.363   0.701  0.00  0.00    -0.261 N 
ATOM     26  C           0      10.660  -0.708   0.306  0.00  0.00     0.142 A 
BRANCH  25  27
ATOM     27  C           0      12.841   0.400   0.868  0.00  0.00     0.154 C 
BRANCH  27  28
ATOM     28  C           0      13.422   1.540   0.029  0.00  0.00     0.041 C 
BRANCH  28  29
ATOM     29  C           0      14.941   1.578   0.203  0.00  0.00     0.124 C 
BRANCH  29  30
ATOM     30  N           0      15.498   2.669  -0.600  0.00  0.00    -0.361 N 
ATOM     31  C           0      16.826   2.895  -0.602  0.00  0.00     0.213 C 
ATOM     32  C           0      17.399   4.017  -1.429  0.00  0.00     0.117 C 
ATOM     33  O           0      17.561   2.195   0.061  0.00  0.00    -0.274 OA
ATOM     34  H           0      14.910   3.229  -1.131  0.00  0.00     0.162 HD
ENDBRANCH  29  30
ENDBRANCH  28  29
ENDBRANCH  27  28
ENDBRANCH  25  27
ENDBRANCH  21  22
ENDBRANCH  20  21
ENDBRANCH  15  20
ENDBRANCH  12  13
ENDBRANCH  11  12
ENDBRANCH   8  11
ENDBRANCH   6   7
ENDBRANCH   5   6
ENDBRANCH   2   5
BRANCH   1  35
ATOM     35  O           0      -6.870  -0.773  -0.550  0.00  0.00    -0.302 OA
BRANCH  35  36
ATOM     36  C           0      -8.084  -0.392   0.150  0.00  0.00     0.208 C 
BRANCH  36  37
ATOM     37  C           0      -9.267  -0.436  -0.819  0.00  0.00     0.151 C 
ATOM     38  N           0      -9.071   0.580  -1.849  0.00  0.00    -0.218 N 
ATOM     39  C           0      -9.173   1.911  -1.485  0.00  0.00     0.672 C 
ATOM     40  H           0      -8.875   0.329  -2.765  0.00  0.00     0.178 HD
ATOM     41  N           0      -8.526   2.854  -2.111  0.00  0.00    -0.235 N 
ATOM     42  N           0      -9.994   2.174  -0.419  0.00  0.00    -0.183 N 
ATOM     43  H           0      -7.949   2.632  -2.859  0.00  0.00     0.174 HD
ATOM     44  H           0      -8.623   3.778  -1.831  0.00  0.00     0.174 HD
ATOM     45  C           0     -10.869   1.222   0.268  0.00  0.00     0.217 C 
ATOM     46  C           0     -10.145   3.443   0.316  0.00  0.00     0.150 C 
ATOM     47  C           0     -10.548  -0.233  -0.034  0.00  0.00     0.180 C 
ATOM     48  C           0     -10.726   1.544   1.765  0.00  0.00     0.209 C 
ATOM     49  N           0     -12.269   1.397  -0.151  0.00  0.00    -0.191 N 
ATOM     50  N           0     -11.695  -0.688  -0.849  0.00  0.00    -0.216 N 
ATOM     51  C           0     -12.723   0.202  -0.651  0.00  0.00     0.670 C 
ATOM     52  H           0     -11.717  -1.471  -1.421  0.00  0.00     0.178 HD
ATOM     53  N           0     -13.974  -0.058  -0.905  0.00  0.00    -0.235 N 
ATOM     54  H           0     -14.228  -0.925  -1.258  0.00  0.00     0.174 HD
ATOM     55  H           0     -14.652   0.616  -0.741  0.00  0.00     0.174 HD
ATOM     56  C           0     -10.244   3.016   1.800  0.00  0.00     0.093 C 
ATOM     57  H           0     -12.784   2.216  -0.083  0.00  0.00     0.180 HD
BRANCH  48  58
ATOM     58  O           0     -11.985   1.416   2.429  0.00  0.00    -0.362 OA
ATOM     59  H           0     -11.845   1.681   3.348  0.00  0.00     0.213 HD
ENDBRANCH  48  58
BRANCH  48  60
ATOM     60  O           0      -9.755   0.687   2.367  0.00  0.00    -0.362 OA
ATOM     61  H           0      -9.665   0.969   3.288  0.00  0.00     0.213 HD
ENDBRANCH  48  60
ENDBRANCH  36  37
ENDBRANCH  35  36
ENDBRANCH   1  35
TORSDOF 18
