REMARK  8 active torsions:
REMARK  status: ('A' for Active; 'I' for Inactive)
REMARK    1  A    between atoms: C_6  and  C_7 
REMARK    2  A    between atoms: C_7  and  O_8 
REMARK    3  A    between atoms: O_8  and  C_9 
REMARK    4  A    between atoms: C_9  and  C_10 
REMARK    5  A    between atoms: C_10  and  C_11 
REMARK    6  A    between atoms: C_11  and  C_12 
REMARK    7  A    between atoms: C_27  and  O_28 
REMARK    8  A    between atoms: C_27  and  O_29 
ROOT
ATOM      1  N           0      -0.714  -0.693  -3.092  0.00  0.00    -0.235 N 
ATOM      2  H           0      -0.058  -1.339  -3.396  0.00  0.00     0.174 HD
ATOM      3  H           0      -1.079  -0.044  -3.713  0.00  0.00     0.174 HD
ATOM      4  C           0      -1.108  -0.699  -1.849  0.00  0.00     0.672 C 
ATOM      5  N           0      -0.620  -1.608  -0.927  0.00  0.00    -0.218 N 
ATOM      6  C           0      -0.584  -1.215   0.479  0.00  0.00     0.151 C 
ATOM      7  C           0      -1.913  -0.674   0.969  0.00  0.00     0.180 C 
ATOM      8  N           0      -2.841  -1.801   1.200  0.00  0.00    -0.216 N 
ATOM      9  C           0      -4.085  -1.409   0.769  0.00  0.00     0.670 C 
ATOM     10  N           0      -5.199  -1.979   1.133  0.00  0.00    -0.235 N 
ATOM     11  H           0      -5.182  -2.730   1.746  0.00  0.00     0.174 HD
ATOM     12  H           0      -6.046  -1.652   0.790  0.00  0.00     0.174 HD
ATOM     13  C           0      -2.641   0.197  -0.042  0.00  0.00     0.217 C 
ATOM     14  N           0      -4.009  -0.344  -0.093  0.00  0.00    -0.191 N 
ATOM     15  N           0      -2.028   0.197  -1.371  0.00  0.00    -0.183 N 
ATOM     16  C           0      -2.566   1.391  -2.049  0.00  0.00     0.150 C 
ATOM     17  C           0      -2.626   2.467  -0.939  0.00  0.00     0.093 C 
ATOM     18  C           0      -2.678   1.673   0.390  0.00  0.00     0.209 C 
ATOM     19  H           0      -0.311  -2.484  -1.206  0.00  0.00     0.178 HD
ATOM     20  H           0      -2.613  -2.662   1.586  0.00  0.00     0.178 HD
ATOM     21  H           0      -4.734  -0.003  -0.640  0.00  0.00     0.180 HD
ENDROOT
BRANCH   6  22
ATOM     22  C           0       0.484  -0.135   0.662  0.00  0.00     0.206 C 
BRANCH  22  23
ATOM     23  O           0       1.793  -0.696   0.379  0.00  0.00    -0.319 OA
BRANCH  23  24
ATOM     24  C           0       2.889   0.074   0.476  0.00  0.00     0.259 C 
ATOM     25  O           0       2.786   1.233   0.799  0.00  0.00    -0.265 OA
BRANCH  24  26
ATOM     26  C           0       4.247  -0.509   0.182  0.00  0.00     0.121 C 
BRANCH  26  27
ATOM     27  C           0       5.316   0.571   0.365  0.00  0.00     0.123 C 
BRANCH  27  28
ATOM     28  C           0       6.674  -0.011   0.071  0.00  0.00     0.172 C 
ATOM     29  O           0       6.778  -1.182  -0.255  0.00  0.00    -0.648 OA
ATOM     30  O           0       7.669   0.688   0.159  0.00  0.00    -0.648 OA
ENDBRANCH  27  28
ENDBRANCH  26  27
ENDBRANCH  24  26
ENDBRANCH  23  24
ENDBRANCH  22  23
ENDBRANCH   6  22
BRANCH  18  31
ATOM     31  O           0      -3.887   1.960   1.096  0.00  0.00    -0.362 OA
ATOM     32  H           0      -3.877   2.907   1.292  0.00  0.00     0.213 HD
ENDBRANCH  18  31
BRANCH  18  33
ATOM     33  O           0      -1.542   1.981   1.200  0.00  0.00    -0.362 OA
ATOM     34  H           0      -1.586   2.928   1.395  0.00  0.00     0.213 HD
ENDBRANCH  18  33
TORSDOF 8
