REMARK  11 active torsions:
REMARK  status: ('A' for Active; 'I' for Inactive)
REMARK    1  A    between atoms: C_6  and  C_7 
REMARK    2  A    between atoms: C_7  and  O_8 
REMARK    3  A    between atoms: O_8  and  C_9 
REMARK       I    between atoms: C_9  and  N_10 
REMARK    4  A    between atoms: N_10  and  C_11 
REMARK    5  A    between atoms: C_11  and  C_12 
REMARK    6  A    between atoms: C_12  and  N_13 
REMARK       I    between atoms: N_13  and  C_14 
REMARK    7  A    between atoms: C_14  and  C_15 
REMARK    8  A    between atoms: C_15  and  C_16 
REMARK    9  A    between atoms: C_16  and  N_17 
REMARK   10  A    between atoms: C_37  and  O_38 
REMARK   11  A    between atoms: C_37  and  O_39 
ROOT
ATOM      1  N           0      -4.259   1.092  -2.957  0.00  0.00    -0.235 N 
ATOM      2  H           0      -3.638   0.674  -3.574  0.00  0.00     0.174 HD
ATOM      3  H           0      -4.575   1.994  -3.123  0.00  0.00     0.174 HD
ATOM      4  C           0      -4.673   0.440  -1.907  0.00  0.00     0.672 C 
ATOM      5  N           0      -4.256  -0.850  -1.630  0.00  0.00    -0.218 N 
ATOM      6  C           0      -4.219  -1.280  -0.235  0.00  0.00     0.151 C 
ATOM      7  C           0      -5.521  -1.012   0.495  0.00  0.00     0.180 C 
ATOM      8  N           0      -6.519  -2.028   0.098  0.00  0.00    -0.216 N 
ATOM      9  C           0      -7.730  -1.392  -0.031  0.00  0.00     0.670 C 
ATOM     10  N           0      -8.882  -2.001  -0.010  0.00  0.00    -0.235 N 
ATOM     11  H           0      -8.920  -2.964   0.101  0.00  0.00     0.174 HD
ATOM     12  H           0      -9.702  -1.491  -0.107  0.00  0.00     0.174 HD
ATOM     13  C           0      -6.179   0.309   0.126  0.00  0.00     0.217 C 
ATOM     14  N           0      -7.576  -0.037  -0.183  0.00  0.00    -0.191 N 
ATOM     15  N           0      -5.545   0.989  -1.004  0.00  0.00    -0.183 N 
ATOM     16  C           0      -6.000   2.389  -0.921  0.00  0.00     0.150 C 
ATOM     17  C           0      -6.013   2.699   0.595  0.00  0.00     0.093 C 
ATOM     18  C           0      -6.134   1.317   1.287  0.00  0.00     0.209 C 
ATOM     19  H           0      -3.996  -1.453  -2.344  0.00  0.00     0.178 HD
ATOM     20  H           0      -6.350  -2.972  -0.046  0.00  0.00     0.178 HD
ATOM     21  H           0      -8.271   0.587  -0.446  0.00  0.00     0.180 HD
ENDROOT
BRANCH   6  22
ATOM     22  C           0      -3.091  -0.536   0.482  0.00  0.00     0.208 C 
BRANCH  22  23
ATOM     23  O           0      -1.814  -0.932  -0.084  0.00  0.00    -0.302 OA
BRANCH  23  24
ATOM     24  C           0      -0.672  -0.401   0.394  0.00  0.00     0.360 C 
ATOM     25  N           0       0.513  -0.769  -0.131  0.00  0.00    -0.335 N 
ATOM     26  H           0       0.544  -1.416  -0.853  0.00  0.00     0.164 HD
ATOM     27  O           0      -0.711   0.410   1.298  0.00  0.00    -0.239 OA
BRANCH  25  28
ATOM     28  C           0       1.755  -0.191   0.388  0.00  0.00     0.144 C 
BRANCH  28  29
ATOM     29  C           0       2.947  -0.773  -0.375  0.00  0.00     0.142 C 
BRANCH  29  30
ATOM     30  N           0       4.189  -0.195   0.145  0.00  0.00    -0.359 N 
ATOM     31  C           0       5.374  -0.563  -0.380  0.00  0.00     0.219 C 
ATOM     32  O           0       5.413  -1.372  -1.283  0.00  0.00    -0.274 OA
ATOM     33  H           0       4.158   0.452   0.867  0.00  0.00     0.162 HD
BRANCH  31  34
ATOM     34  C           0       6.652   0.031   0.154  0.00  0.00     0.123 C 
BRANCH  34  35
ATOM     35  C           0       7.844  -0.550  -0.609  0.00  0.00     0.144 C 
BRANCH  35  36
ATOM     36  N           0       9.086   0.027  -0.089  0.00  0.00    -0.288 N 
ATOM     37  C           0       9.629   1.145  -0.588  0.00  0.00     0.226 A 
ATOM     38  C           0      10.896   1.465   0.175  0.00  0.00     0.112 A 
ATOM     39  O           0       9.174   1.800  -1.500  0.00  0.00    -0.273 OA
ATOM     40  C           0      10.997   0.321   1.204  0.00  0.00     0.112 A 
ATOM     41  C           0       9.774  -0.522   0.919  0.00  0.00     0.226 A 
ATOM     42  O           0       9.465  -1.535   1.510  0.00  0.00    -0.273 OA
ENDBRANCH  35  36
ENDBRANCH  34  35
ENDBRANCH  31  34
ENDBRANCH  29  30
ENDBRANCH  28  29
ENDBRANCH  25  28
ENDBRANCH  23  24
ENDBRANCH  22  23
ENDBRANCH   6  22
BRANCH  18  43
ATOM     43  O           0      -7.335   1.250   2.059  0.00  0.00    -0.362 OA
ATOM     44  H           0      -7.272   1.938   2.734  0.00  0.00     0.213 HD
ENDBRANCH  18  43
BRANCH  18  45
ATOM     45  O           0      -4.995   1.072   2.114  0.00  0.00    -0.362 OA
ATOM     46  H           0      -4.985   1.765   2.789  0.00  0.00     0.213 HD
ENDBRANCH  18  45
TORSDOF 11
