REMARK  18 active torsions:
REMARK  status: ('A' for Active; 'I' for Inactive)
REMARK    1  A    between atoms: C_6  and  C_7 
REMARK    2  A    between atoms: C_7  and  O_8 
REMARK    3  A    between atoms: O_8  and  C_9 
REMARK       I    between atoms: C_9  and  N_10 
REMARK    4  A    between atoms: N_10  and  C_11 
REMARK    5  A    between atoms: C_11  and  C_12 
REMARK    6  A    between atoms: C_12  and  C_13 
REMARK    7  A    between atoms: C_13  and  C_14 
REMARK    8  A    between atoms: C_14  and  C_15 
REMARK    9  A    between atoms: C_15  and  C_16 
REMARK   10  A    between atoms: C_16  and  N_17 
REMARK       I    between atoms: N_17  and  C_18 
REMARK   11  A    between atoms: C_18  and  C_19 
REMARK   12  A    between atoms: C_22  and  C_23 
REMARK   13  A    between atoms: C_28  and  O_29 
REMARK   14  A    between atoms: C_41  and  C_42 
REMARK   15  A    between atoms: C_42  and  C_43 
REMARK   16  A    between atoms: C_43  and  O_44 
REMARK   17  A    between atoms: C_60  and  O_61 
REMARK   18  A    between atoms: C_60  and  O_62 
ROOT
ATOM      1  C           0       0.032  -0.135  -0.917  0.00  0.00     0.020 C 
ENDROOT
BRANCH   1   2
ATOM      2  C           0      -1.331  -0.128  -1.610  0.00  0.00     0.002 C 
BRANCH   2   3
ATOM      3  C           0      -2.436  -0.289  -0.564  0.00  0.00     0.002 C 
BRANCH   3   4
ATOM      4  C           0      -3.800  -0.282  -1.258  0.00  0.00     0.020 C 
BRANCH   4   5
ATOM      5  C           0      -4.905  -0.443  -0.212  0.00  0.00     0.125 C 
BRANCH   5   6
ATOM      6  N           0      -6.211  -0.436  -0.876  0.00  0.00    -0.337 N 
ATOM      7  C           0      -7.338  -0.565  -0.148  0.00  0.00     0.360 C 
ATOM      8  O           0      -7.271  -0.687   1.059  0.00  0.00    -0.239 OA
ATOM      9  H           0      -6.264  -0.339  -1.840  0.00  0.00     0.164 HD
BRANCH   7  10
ATOM     10  O           0      -8.538  -0.559  -0.759  0.00  0.00    -0.302 OA
BRANCH  10  11
ATOM     11  C           0      -9.752  -0.698   0.025  0.00  0.00     0.208 C 
BRANCH  11  12
ATOM     12  C           0     -10.967  -0.660  -0.904  0.00  0.00     0.151 C 
ATOM     13  N           0     -11.046   0.661  -1.522  0.00  0.00    -0.218 N 
ATOM     14  C           0     -11.384   1.739  -0.722  0.00  0.00     0.672 C 
ATOM     15  H           0     -10.867   0.780  -2.468  0.00  0.00     0.178 HD
ATOM     16  N           0     -10.980   2.951  -0.984  0.00  0.00    -0.235 N 
ATOM     17  N           0     -12.165   1.450   0.366  0.00  0.00    -0.183 N 
ATOM     18  H           0     -10.424   3.119  -1.761  0.00  0.00     0.174 HD
ATOM     19  H           0     -11.239   3.684  -0.404  0.00  0.00     0.174 HD
ATOM     20  C           0     -12.786   0.162   0.680  0.00  0.00     0.217 C 
ATOM     21  C           0     -12.513   2.336   1.492  0.00  0.00     0.150 C 
ATOM     22  C           0     -12.206  -1.006  -0.102  0.00  0.00     0.180 C 
ATOM     23  C           0     -12.608  -0.017   2.198  0.00  0.00     0.209 C 
ATOM     24  N           0     -14.218   0.171   0.342  0.00  0.00    -0.191 N 
ATOM     25  N           0     -13.293  -1.388  -1.027  0.00  0.00    -0.216 N 
ATOM     26  C           0     -14.460  -0.853  -0.539  0.00  0.00     0.670 C 
ATOM     27  H           0     -13.200  -1.919  -1.833  0.00  0.00     0.178 HD
ATOM     28  N           0     -15.651  -1.267  -0.872  0.00  0.00    -0.235 N 
ATOM     29  H           0     -15.752  -1.998  -1.502  0.00  0.00     0.174 HD
ATOM     30  H           0     -16.436  -0.845  -0.489  0.00  0.00     0.174 HD
ATOM     31  C           0     -12.424   1.424   2.738  0.00  0.00     0.093 C 
ATOM     32  H           0     -14.879   0.793   0.685  0.00  0.00     0.180 HD
BRANCH  23  33
ATOM     33  O           0     -13.768  -0.621   2.772  0.00  0.00    -0.362 OA
ATOM     34  H           0     -13.621  -0.657   3.727  0.00  0.00     0.213 HD
ENDBRANCH  23  33
BRANCH  23  35
ATOM     35  O           0     -11.447  -0.804   2.472  0.00  0.00    -0.362 OA
ATOM     36  H           0     -11.353  -0.836   3.434  0.00  0.00     0.213 HD
ENDBRANCH  23  35
ENDBRANCH  11  12
ENDBRANCH  10  11
ENDBRANCH   7  10
ENDBRANCH   5   6
ENDBRANCH   4   5
ENDBRANCH   3   4
ENDBRANCH   2   3
ENDBRANCH   1   2
BRANCH   1  37
ATOM     37  C           0       1.137   0.027  -1.962  0.00  0.00     0.123 C 
BRANCH  37  38
ATOM     38  N           0       2.443   0.020  -1.298  0.00  0.00    -0.357 N 
ATOM     39  C           0       3.570   0.149  -2.026  0.00  0.00     0.251 C 
ATOM     40  O           0       3.503   0.271  -3.234  0.00  0.00    -0.268 OA
ATOM     41  H           0       2.497  -0.078  -0.335  0.00  0.00     0.162 HD
BRANCH  39  42
ATOM     42  C           0       4.889   0.142  -1.355  0.00  0.00     0.032 A 
ATOM     43  C           0       6.057   0.270  -2.111  0.00  0.00     0.025 A 
ATOM     44  C           0       7.284   0.270  -1.487  0.00  0.00    -0.036 A 
ATOM     45  C           0       7.362   0.130  -0.097  0.00  0.00    -0.017 A 
ATOM     46  C           0       6.192  -0.004   0.657  0.00  0.00     0.014 A 
ATOM     47  C           0       4.965   0.002   0.032  0.00  0.00     0.018 A 
BRANCH  44  48
ATOM     48  C           0       8.544   0.414  -2.302  0.00  0.00     0.149 C 
BRANCH  48  49
ATOM     49  C           0       9.087  -0.952  -2.633  0.00  0.00     0.143 C 
ATOM     50  O           0       8.459  -1.940  -2.334  0.00  0.00    -0.650 OA
BRANCH  49  51
ATOM     51  O           0      10.268  -1.071  -3.260  0.00  0.00    -0.776 OA
ATOM     52  H           0      10.616  -1.948  -3.472  0.00  0.00     0.167 HD
ENDBRANCH  49  51
ENDBRANCH  48  49
ENDBRANCH  44  48
BRANCH  45  53
ATOM     53  C           0       8.677   0.123   0.571  0.00  0.00     0.001 A 
ATOM     54  C           0       9.414   1.366   0.808  0.00  0.00     0.013 A 
ATOM     55  C           0       8.888   2.601   0.402  0.00  0.00     0.060 A 
ATOM     56  C           0      10.667   1.307   1.451  0.00  0.00     0.090 A 
ATOM     57  C           0       9.593   3.746   0.633  0.00  0.00     0.150 A 
ATOM     58  F           0       9.088   4.937   0.243  0.00  0.00    -0.203 F 
ATOM     59  C           0      10.836   3.694   1.271  0.00  0.00     0.106 A 
ATOM     60  C           0      11.369   2.483   1.677  0.00  0.00     0.077 A 
ATOM     61  O           0      11.179   0.122   1.844  0.00  0.00    -0.309 OA
ATOM     62  C           0      10.533  -1.045   1.645  0.00  0.00     0.091 A 
ATOM     63  C           0       9.267  -1.081   1.012  0.00  0.00     0.013 A 
ATOM     64  C           0      11.107  -2.226   2.074  0.00  0.00     0.096 A 
ATOM     65  C           0       8.604  -2.310   0.818  0.00  0.00     0.061 A 
ATOM     66  C           0       9.174  -3.464   1.248  0.00  0.00     0.167 A 
ATOM     67  C           0      10.437  -3.439   1.881  0.00  0.00     0.212 A 
ATOM     68  F           0       8.534  -4.640   1.066  0.00  0.00    -0.202 F 
ATOM     69  O           0      10.948  -4.485   2.262  0.00  0.00    -0.285 OA
BRANCH  59  70
ATOM     70  O           0      11.526   4.841   1.494  0.00  0.00    -0.358 OA
ATOM     71  H           0      11.250   5.169   2.361  0.00  0.00     0.217 HD
ENDBRANCH  59  70
ENDBRANCH  45  53
ENDBRANCH  39  42
ENDBRANCH  37  38
ENDBRANCH   1  37
TORSDOF 18
