REMARK  4 active torsions:
REMARK  status: ('A' for Active; 'I' for Inactive)
REMARK    1  A    between atoms: C_6  and  C_7 
REMARK    2  A    between atoms: C_7  and  O_8 
REMARK    3  A    between atoms: C_20  and  O_21 
REMARK    4  A    between atoms: C_20  and  O_22 
ROOT
ATOM      1  N           0      -2.225   0.339   2.456  0.00  0.00    -0.235 N 
ATOM      2  H           0      -3.018  -0.165   2.696  0.00  0.00     0.174 HD
ATOM      3  H           0      -1.987   1.136   2.955  0.00  0.00     0.174 HD
ATOM      4  C           0      -1.477  -0.057   1.465  0.00  0.00     0.672 C 
ATOM      5  N           0      -1.771  -1.190   0.726  0.00  0.00    -0.218 N 
ATOM      6  C           0      -1.330  -1.243  -0.665  0.00  0.00     0.150 C 
ATOM      7  C           0       0.141  -0.915  -0.824  0.00  0.00     0.180 C 
ATOM      8  N           0       0.947  -2.084  -0.414  0.00  0.00    -0.216 N 
ATOM      9  C           0       2.040  -1.614   0.272  0.00  0.00     0.670 C 
ATOM     10  N           0       3.132  -2.299   0.467  0.00  0.00    -0.235 N 
ATOM     11  H           0       3.209  -3.200   0.117  0.00  0.00     0.174 HD
ATOM     12  H           0       3.869  -1.906   0.961  0.00  0.00     0.174 HD
ATOM     13  C           0       0.631   0.203   0.083  0.00  0.00     0.217 C 
ATOM     14  N           0       1.840  -0.335   0.728  0.00  0.00    -0.191 N 
ATOM     15  N           0      -0.351   0.625   1.083  0.00  0.00    -0.183 N 
ATOM     16  C           0       0.101   1.953   1.537  0.00  0.00     0.150 C 
ATOM     17  C           0       0.628   2.638   0.254  0.00  0.00     0.093 C 
ATOM     18  C           0       0.981   1.474  -0.708  0.00  0.00     0.209 C 
ATOM     19  H           0      -2.258  -1.929   1.123  0.00  0.00     0.178 HD
ATOM     20  H           0       0.742  -3.014  -0.596  0.00  0.00     0.178 HD
ATOM     21  H           0       2.402   0.135   1.363  0.00  0.00     0.180 HD
ENDROOT
BRANCH  18  22
ATOM     22  O           0       2.373   1.499  -1.030  0.00  0.00    -0.362 OA
ATOM     23  H           0       2.542   2.341  -1.475  0.00  0.00     0.213 HD
ENDBRANCH  18  22
BRANCH  18  24
ATOM     24  O           0       0.192   1.553  -1.896  0.00  0.00    -0.362 OA
ATOM     25  H           0       0.411   2.394  -2.322  0.00  0.00     0.213 HD
ENDBRANCH  18  24
BRANCH   6  26
ATOM     26  C           0      -2.149  -0.241  -1.481  0.00  0.00     0.192 C 
BRANCH  26  27
ATOM     27  O           0      -3.520  -0.645  -1.496  0.00  0.00    -0.399 OA
ATOM     28  H           0      -3.999   0.011  -2.019  0.00  0.00     0.209 HD
ENDBRANCH  26  27
ENDBRANCH   6  26
TORSDOF 4
