REMARK  18 active torsions:
REMARK  status: ('A' for Active; 'I' for Inactive)
REMARK    1  A    between atoms: C_6  and  C_7 
REMARK    2  A    between atoms: C_7  and  O_8 
REMARK    3  A    between atoms: O_8  and  C_9 
REMARK       I    between atoms: C_9  and  N_10 
REMARK    4  A    between atoms: N_10  and  C_11 
REMARK    5  A    between atoms: C_11  and  C_12 
REMARK    6  A    between atoms: C_12  and  C_13 
REMARK    7  A    between atoms: C_13  and  C_14 
REMARK    8  A    between atoms: C_14  and  C_15 
REMARK    9  A    between atoms: C_15  and  C_16 
REMARK   10  A    between atoms: C_16  and  N_17 
REMARK       I    between atoms: N_17  and  C_18 
REMARK   11  A    between atoms: C_18  and  C_19 
REMARK   12  A    between atoms: C_19  and  N_20 
REMARK       I    between atoms: N_20  and  C_21 
REMARK   13  A    between atoms: C_21  and  C_22 
REMARK   14  A    between atoms: C_27  and  N_28 
REMARK   15  A    between atoms: N_28  and  C_29 
REMARK   16  A    between atoms: N_28  and  C_31 
REMARK   17  A    between atoms: C_52  and  O_53 
REMARK   18  A    between atoms: C_52  and  O_54 
ROOT
ATOM      1  C           0      -6.673   0.397   0.571  0.00  0.00     0.360 C 
ATOM      2  N           0      -5.407  -0.066   0.589  0.00  0.00    -0.337 N 
ATOM      3  O           0      -6.883   1.583   0.411  0.00  0.00    -0.239 OA
ATOM      4  H           0      -5.239  -1.013   0.717  0.00  0.00     0.164 HD
ENDROOT
BRANCH   2   5
ATOM      5  C           0      -4.286   0.860   0.416  0.00  0.00     0.125 C 
BRANCH   5   6
ATOM      6  C           0      -2.969   0.083   0.477  0.00  0.00     0.020 C 
BRANCH   6   7
ATOM      7  C           0      -1.797   1.051   0.296  0.00  0.00     0.002 C 
BRANCH   7   8
ATOM      8  C           0      -0.481   0.274   0.356  0.00  0.00     0.002 C 
BRANCH   8   9
ATOM      9  C           0       0.691   1.241   0.176  0.00  0.00     0.020 C 
BRANCH   9  10
ATOM     10  C           0       2.008   0.464   0.236  0.00  0.00     0.122 C 
BRANCH  10  11
ATOM     11  N           0       3.130   1.391   0.063  0.00  0.00    -0.360 N 
ATOM     12  C           0       4.395   0.927   0.081  0.00  0.00     0.235 C 
ATOM     13  O           0       4.605  -0.256   0.241  0.00  0.00    -0.272 OA
ATOM     14  H           0       2.962   2.337  -0.064  0.00  0.00     0.162 HD
BRANCH  12  15
ATOM     15  C           0       5.549   1.880  -0.097  0.00  0.00     0.225 C 
BRANCH  15  16
ATOM     16  N           0       6.810   1.136  -0.039  0.00  0.00    -0.348 N 
ATOM     17  C           0       7.983   1.786  -0.175  0.00  0.00     0.258 C 
ATOM     18  O           0       7.994   2.991  -0.345  0.00  0.00    -0.267 OA
ATOM     19  H           0       6.801   0.176   0.097  0.00  0.00     0.163 HD
BRANCH  17  20
ATOM     20  C           0       9.249   1.039  -0.117  0.00  0.00     0.108 C 
ATOM     21  C           0       9.266  -0.418   0.095  0.00  0.00     0.304 C 
ATOM     22  O           0      10.352  -1.099  -0.353  0.00  0.00    -0.274 OA
ATOM     23  O           0       8.342  -0.992   0.641  0.00  0.00    -0.259 OA
ATOM     24  C           0      11.565  -0.502  -0.242  0.00  0.00     0.091 A 
ATOM     25  C           0      11.653   0.906  -0.223  0.00  0.00    -0.001 A 
ATOM     26  C           0      12.719  -1.262  -0.166  0.00  0.00     0.067 A 
ATOM     27  C           0      10.473   1.685  -0.254  0.00  0.00     0.037 C 
ATOM     28  C           0      12.913   1.524  -0.165  0.00  0.00     0.016 A 
ATOM     29  C           0      14.040   0.762  -0.099  0.00  0.00     0.030 A 
ATOM     30  C           0      13.955  -0.632  -0.093  0.00  0.00     0.032 A 
BRANCH  30  31
ATOM     31  N           0      15.113  -1.395  -0.013  0.00  0.00    -0.382 N 
BRANCH  31  32
ATOM     32  C           0      15.025  -2.851   0.116  0.00  0.00     0.118 C 
ATOM     33  C           0      15.008  -3.487  -1.276  0.00  0.00     0.026 C 
ENDBRANCH  31  32
BRANCH  31  34
ATOM     34  C           0      16.424  -0.742  -0.059  0.00  0.00     0.118 C 
ATOM     35  C           0      16.839  -0.331   1.356  0.00  0.00     0.026 C 
ENDBRANCH  31  34
ENDBRANCH  30  31
ENDBRANCH  17  20
ENDBRANCH  15  16
ENDBRANCH  12  15
ENDBRANCH  10  11
ENDBRANCH   9  10
ENDBRANCH   8   9
ENDBRANCH   7   8
ENDBRANCH   6   7
ENDBRANCH   5   6
ENDBRANCH   2   5
BRANCH   1  36
ATOM     36  O           0      -7.704  -0.454   0.730  0.00  0.00    -0.302 OA
BRANCH  36  37
ATOM     37  C           0      -9.067   0.045   0.710  0.00  0.00     0.208 C 
BRANCH  37  38
ATOM     38  C           0     -10.039  -1.119   0.911  0.00  0.00     0.151 C 
ATOM     39  N           0      -9.935  -2.023  -0.230  0.00  0.00    -0.218 N 
ATOM     40  C           0     -10.409  -1.589  -1.456  0.00  0.00     0.672 C 
ATOM     41  H           0      -9.544  -2.905  -0.133  0.00  0.00     0.178 HD
ATOM     42  N           0      -9.917  -2.021  -2.583  0.00  0.00    -0.235 N 
ATOM     43  N           0     -11.424  -0.670  -1.408  0.00  0.00    -0.183 N 
ATOM     44  H           0      -9.195  -2.669  -2.580  0.00  0.00     0.174 HD
ATOM     45  H           0     -10.276  -1.699  -3.425  0.00  0.00     0.174 HD
ATOM     46  C           0     -12.141  -0.218  -0.215  0.00  0.00     0.217 C 
ATOM     47  C           0     -11.988   0.116  -2.521  0.00  0.00     0.150 C 
ATOM     48  C           0     -11.438  -0.561   1.089  0.00  0.00     0.180 C 
ATOM     49  C           0     -12.315   1.299  -0.392  0.00  0.00     0.209 C 
ATOM     50  N           0     -13.460  -0.865  -0.116  0.00  0.00    -0.191 N 
ATOM     51  N           0     -12.301  -1.597   1.696  0.00  0.00    -0.216 N 
ATOM     52  C           0     -13.530  -1.521   1.088  0.00  0.00     0.670 C 
ATOM     53  H           0     -12.046  -2.217   2.397  0.00  0.00     0.178 HD
ATOM     54  N           0     -14.628  -2.011   1.592  0.00  0.00    -0.235 N 
ATOM     55  H           0     -14.608  -2.464   2.449  0.00  0.00     0.174 HD
ATOM     56  H           0     -15.465  -1.922   1.109  0.00  0.00     0.174 HD
ATOM     57  C           0     -12.212   1.524  -1.922  0.00  0.00     0.093 C 
ATOM     58  H           0     -14.160  -0.832  -0.786  0.00  0.00     0.180 HD
BRANCH  49  59
ATOM     59  O           0     -13.594   1.719   0.087  0.00  0.00    -0.362 OA
ATOM     60  H           0     -13.667   2.665  -0.100  0.00  0.00     0.213 HD
ENDBRANCH  49  59
BRANCH  49  61
ATOM     61  O           0     -11.272   2.002   0.286  0.00  0.00    -0.362 OA
ATOM     62  H           0     -11.398   2.942   0.095  0.00  0.00     0.213 HD
ENDBRANCH  49  61
ENDBRANCH  37  38
ENDBRANCH  36  37
ENDBRANCH   1  36
TORSDOF 18
