REMARK  7 active torsions:
REMARK  status: ('A' for Active; 'I' for Inactive)
REMARK    1  A    between atoms: C_6  and  C_7 
REMARK    2  A    between atoms: C_7  and  O_8 
REMARK    3  A    between atoms: O_8  and  C_9 
REMARK       I    between atoms: C_9  and  N_10 
REMARK    4  A    between atoms: C_22  and  O_23 
REMARK    5  A    between atoms: O_23  and  S_24 
REMARK    6  A    between atoms: C_28  and  O_29 
REMARK    7  A    between atoms: C_28  and  O_30 
ROOT
ATOM      1  N           0      -0.954   0.378   3.101  0.00  0.00    -0.235 N 
ATOM      2  H           0      -1.668   0.801   3.603  0.00  0.00     0.174 HD
ATOM      3  H           0      -0.054   0.356   3.463  0.00  0.00     0.174 HD
ATOM      4  C           0      -1.205  -0.168   1.944  0.00  0.00     0.672 C 
ATOM      5  N           0      -2.472  -0.168   1.389  0.00  0.00    -0.218 N 
ATOM      6  C           0      -2.590  -0.197  -0.066  0.00  0.00     0.151 C 
ATOM      7  C           0      -1.772  -1.307  -0.697  0.00  0.00     0.180 C 
ATOM      8  N           0      -2.473  -2.595  -0.508  0.00  0.00    -0.216 N 
ATOM      9  C           0      -1.524  -3.546  -0.224  0.00  0.00     0.670 C 
ATOM     10  N           0      -1.713  -4.830  -0.353  0.00  0.00    -0.235 N 
ATOM     11  H           0      -2.567  -5.165  -0.667  0.00  0.00     0.174 HD
ATOM     12  H           0      -0.998  -5.449  -0.134  0.00  0.00     0.174 HD
ATOM     13  C           0      -0.418  -1.530  -0.042  0.00  0.00     0.220 C 
ATOM     14  N           0      -0.353  -2.978   0.212  0.00  0.00    -0.191 N 
ATOM     15  N           0      -0.229  -0.772   1.196  0.00  0.00    -0.180 N 
ATOM     16  C           0       1.228  -0.754   1.423  0.00  0.00     0.183 C 
ATOM     17  C           0       1.834  -0.590   0.009  0.00  0.00     0.227 C 
ATOM     18  C           0       0.741  -1.108  -0.960  0.00  0.00     0.238 C 
ATOM     19  H           0      -3.262  -0.149   1.952  0.00  0.00     0.178 HD
ATOM     20  H           0      -3.430  -2.742  -0.574  0.00  0.00     0.178 HD
ATOM     21  H           0       0.391  -3.452   0.616  0.00  0.00     0.180 HD
ENDROOT
BRANCH   6  22
ATOM     22  C           0      -2.115   1.144  -0.627  0.00  0.00     0.208 C 
BRANCH  22  23
ATOM     23  O           0      -3.009   2.199  -0.184  0.00  0.00    -0.302 OA
BRANCH  23  24
ATOM     24  C           0      -2.785   3.473  -0.558  0.00  0.00     0.358 C 
ATOM     25  N           0      -3.615   4.452  -0.146  0.00  0.00    -0.346 N 
ATOM     26  H           0      -4.373   4.238   0.420  0.00  0.00     0.161 HD
ATOM     27  H           0      -3.454   5.370  -0.415  0.00  0.00     0.161 HD
ATOM     28  O           0      -1.835   3.740  -1.267  0.00  0.00    -0.239 OA
ENDBRANCH  23  24
ENDBRANCH  22  23
ENDBRANCH   6  22
BRANCH  18  29
ATOM     29  O           0       1.226  -2.226  -1.706  0.00  0.00    -0.360 OA
ATOM     30  H           0       1.983  -1.913  -2.220  0.00  0.00     0.213 HD
ENDBRANCH  18  29
BRANCH  18  31
ATOM     31  O           0       0.322  -0.064  -1.842  0.00  0.00    -0.360 OA
ATOM     32  H           0       1.100   0.200  -2.352  0.00  0.00     0.213 HD
ENDBRANCH  18  31
BRANCH  17  33
ATOM     33  O           0       2.123   0.785  -0.251  0.00  0.00    -0.263 OA
BRANCH  33  34
ATOM     34  S           0       3.596   0.994   0.069  0.00  0.00     0.262 S 
ATOM     35  O           0       4.383   0.075  -0.769  0.00  0.00    -0.199 OA
ATOM     36  C           0       3.994   2.734  -0.252  0.00  0.00     0.194 C 
ATOM     37  O           0       3.818   0.619   1.475  0.00  0.00    -0.199 OA
ENDBRANCH  33  34
ENDBRANCH  17  33
TORSDOF 7
