REMARK  5 active torsions:
REMARK  status: ('A' for Active; 'I' for Inactive)
REMARK    1  A    between atoms: C_6  and  C_7 
REMARK    2  A    between atoms: C_7  and  O_8 
REMARK    3  A    between atoms: O_8  and  C_9 
REMARK       I    between atoms: C_9  and  N_10 
REMARK    4  A    between atoms: C_25  and  O_26 
REMARK    5  A    between atoms: C_25  and  O_27 
ROOT
ATOM      1  N           0      -0.068  -0.570   3.096  0.00  0.00    -0.235 N 
ATOM      2  H           0      -0.753  -1.182   3.408  0.00  0.00     0.174 HD
ATOM      3  H           0       0.323   0.074   3.708  0.00  0.00     0.174 HD
ATOM      4  C           0       0.332  -0.616   1.856  0.00  0.00     0.672 C 
ATOM      5  N           0      -0.190  -1.520   0.947  0.00  0.00    -0.218 N 
ATOM      6  C           0      -0.202  -1.151  -0.465  0.00  0.00     0.151 C 
ATOM      7  C           0       1.151  -0.677  -0.958  0.00  0.00     0.180 C 
ATOM      8  N           0       2.031  -1.848  -1.163  0.00  0.00    -0.216 N 
ATOM      9  C           0       3.288  -1.502  -0.731  0.00  0.00     0.670 C 
ATOM     10  N           0       4.379  -2.126  -1.079  0.00  0.00    -0.235 N 
ATOM     11  H           0       4.332  -2.886  -1.679  0.00  0.00     0.174 HD
ATOM     12  H           0       5.237  -1.829  -0.737  0.00  0.00     0.174 HD
ATOM     13  C           0       1.911   0.180   0.042  0.00  0.00     0.217 C 
ATOM     14  N           0       3.254  -0.418   0.111  0.00  0.00    -0.191 N 
ATOM     15  N           0       1.292   0.231   1.367  0.00  0.00    -0.183 N 
ATOM     16  C           0       1.878   1.412   2.026  0.00  0.00     0.150 C 
ATOM     17  C           0       1.989   2.465   0.897  0.00  0.00     0.093 C 
ATOM     18  C           0       2.014   1.644  -0.417  0.00  0.00     0.209 C 
ATOM     19  H           0      -0.538  -2.377   1.241  0.00  0.00     0.178 HD
ATOM     20  H           0       1.768  -2.704  -1.534  0.00  0.00     0.178 HD
ATOM     21  H           0       3.991  -0.100   0.656  0.00  0.00     0.180 HD
ENDROOT
BRANCH   6  22
ATOM     22  C           0      -1.222  -0.030  -0.674  0.00  0.00     0.208 C 
BRANCH  22  23
ATOM     23  O           0      -2.555  -0.529  -0.388  0.00  0.00    -0.302 OA
BRANCH  23  24
ATOM     24  C           0      -3.619   0.288  -0.506  0.00  0.00     0.362 C 
ATOM     25  N           0      -4.857  -0.175  -0.240  0.00  0.00    -0.337 N 
ATOM     26  C           0      -6.015   0.713  -0.368  0.00  0.00     0.154 C 
ATOM     27  C           0      -5.045  -1.567   0.176  0.00  0.00     0.154 C 
ATOM     28  O           0      -3.464   1.442  -0.851  0.00  0.00    -0.238 OA
ENDBRANCH  23  24
ENDBRANCH  22  23
ENDBRANCH   6  22
BRANCH  18  29
ATOM     29  O           0       3.238   1.866  -1.121  0.00  0.00    -0.362 OA
ATOM     30  H           0       3.270   2.809  -1.334  0.00  0.00     0.213 HD
ENDBRANCH  18  29
BRANCH  18  31
ATOM     31  O           0       0.896   1.987  -1.239  0.00  0.00    -0.362 OA
ATOM     32  H           0       0.982   2.926  -1.450  0.00  0.00     0.213 HD
ENDBRANCH  18  31
TORSDOF 5
