REMARK  5 active torsions:
REMARK  status: ('A' for Active; 'I' for Inactive)
REMARK    1  A    between atoms: C_6  and  C_7 
REMARK    2  A    between atoms: C_7  and  O_8 
REMARK    3  A    between atoms: O_8  and  C_9 
REMARK       I    between atoms: C_9  and  N_10 
REMARK    4  A    between atoms: C_24  and  O_25 
REMARK    5  A    between atoms: C_24  and  O_26 
ROOT
ATOM      1  N           0       0.717   0.657  -3.108  0.00  0.00    -0.235 N 
ATOM      2  H           0       1.357   0.136  -3.617  0.00  0.00     0.174 HD
ATOM      3  H           0       0.412   1.514  -3.445  0.00  0.00     0.174 HD
ATOM      4  C           0       0.261   0.203  -1.974  0.00  0.00     0.672 C 
ATOM      5  N           0       0.661  -1.015  -1.456  0.00  0.00    -0.218 N 
ATOM      6  C           0       0.658  -1.188  -0.006  0.00  0.00     0.151 C 
ATOM      7  C           0      -0.664  -0.792   0.624  0.00  0.00     0.182 C 
ATOM      8  N           0      -1.650  -1.872   0.400  0.00  0.00    -0.211 N 
ATOM      9  C           0      -1.388  -3.311   0.470  0.00  0.00     0.169 C 
ATOM     10  C           0      -2.856  -1.279   0.115  0.00  0.00     0.672 C 
ATOM     11  N           0      -4.009  -1.880   0.215  0.00  0.00    -0.235 N 
ATOM     12  H           0      -4.050  -2.804   0.507  0.00  0.00     0.174 HD
ATOM     13  H           0      -4.825  -1.403  -0.002  0.00  0.00     0.174 HD
ATOM     14  C           0      -1.312   0.429  -0.006  0.00  0.00     0.217 C 
ATOM     15  N           0      -2.698   0.024  -0.288  0.00  0.00    -0.191 N 
ATOM     16  N           0      -0.642   0.907  -1.215  0.00  0.00    -0.183 N 
ATOM     17  C           0      -1.080   2.297  -1.416  0.00  0.00     0.150 C 
ATOM     18  C           0      -1.499   2.834  -0.032  0.00  0.00     0.093 C 
ATOM     19  C           0      -1.301   1.643   0.945  0.00  0.00     0.209 C 
ATOM     20  H           0       0.937  -1.738  -2.042  0.00  0.00     0.178 HD
ATOM     21  H           0      -3.383   0.582  -0.687  0.00  0.00     0.180 HD
ENDROOT
BRANCH   6  22
ATOM     22  C           0       1.768  -0.325   0.597  0.00  0.00     0.208 C 
BRANCH  22  23
ATOM     23  O           0       3.059  -0.815   0.148  0.00  0.00    -0.302 OA
BRANCH  23  24
ATOM     24  C           0       4.189  -0.206   0.556  0.00  0.00     0.358 C 
ATOM     25  N           0       5.387  -0.661   0.139  0.00  0.00    -0.346 N 
ATOM     26  H           0       5.436  -1.427  -0.454  0.00  0.00     0.161 HD
ATOM     27  H           0       6.201  -0.222   0.432  0.00  0.00     0.161 HD
ATOM     28  O           0       4.128   0.754   1.298  0.00  0.00    -0.239 OA
ENDBRANCH  23  24
ENDBRANCH  22  23
ENDBRANCH   6  22
BRANCH  19  29
ATOM     29  O           0      -2.375   1.572   1.884  0.00  0.00    -0.362 OA
ATOM     30  H           0      -2.361   2.397   2.388  0.00  0.00     0.213 HD
ENDBRANCH  19  29
BRANCH  19  31
ATOM     31  O           0      -0.044   1.742   1.617  0.00  0.00    -0.362 OA
ATOM     32  H           0      -0.063   2.565   2.125  0.00  0.00     0.213 HD
ENDBRANCH  19  31
TORSDOF 5
