REMARK  28 active torsions:
REMARK  status: ('A' for Active; 'I' for Inactive)
REMARK    1  A    between atoms: C_6  and  C_7 
REMARK    2  A    between atoms: C_7  and  O_8 
REMARK    3  A    between atoms: O_8  and  C_9 
REMARK       I    between atoms: C_9  and  N_10 
REMARK    4  A    between atoms: N_10  and  C_11 
REMARK    5  A    between atoms: C_11  and  C_12 
REMARK    6  A    between atoms: C_12  and  N_13 
REMARK       I    between atoms: N_13  and  C_14 
REMARK    7  A    between atoms: C_14  and  C_15 
REMARK    8  A    between atoms: C_15  and  C_16 
REMARK    9  A    between atoms: C_16  and  N_17 
REMARK   10  A    between atoms: C_20  and  C_21 
REMARK   11  A    between atoms: C_21  and  C_22 
REMARK   12  A    between atoms: C_22  and  C_23 
REMARK   13  A    between atoms: N_25  and  C_26 
REMARK   14  A    between atoms: C_26  and  C_27 
REMARK   15  A    between atoms: C_27  and  C_28 
REMARK   16  A    between atoms: C_28  and  N_29 
REMARK       I    between atoms: N_29  and  C_30 
REMARK   17  A    between atoms: C_30  and  C_31 
REMARK   18  A    between atoms: C_31  and  C_32 
REMARK   19  A    between atoms: C_32  and  C_33 
REMARK   20  A    between atoms: C_33  and  C_34 
REMARK   21  A    between atoms: C_34  and  C_35 
REMARK   22  A    between atoms: C_35  and  N_36 
REMARK   23  A    between atoms: C_38  and  C_39 
REMARK   24  A    between atoms: C_40  and  C_41 
REMARK   25  A    between atoms: C_41  and  C_42 
REMARK   26  A    between atoms: C_42  and  C_43 
REMARK   27  A    between atoms: C_83  and  O_84 
REMARK   28  A    between atoms: C_83  and  O_85 
ROOT
ATOM      1  C           0      -3.582  -5.989   2.259  0.00  0.00     0.020 C 
ENDROOT
BRANCH   1   2
ATOM      2  C           0      -4.970  -5.618   2.786  0.00  0.00     0.087 A 
ATOM      3  C           0      -5.883  -6.860   2.831  0.00  0.00     0.117 A 
ATOM      4  C           0      -7.010  -6.506   1.884  0.00  0.00     0.227 A 
ATOM      5  N           0      -6.794  -5.285   1.380  0.00  0.00    -0.288 N 
ATOM      6  O           0      -7.957  -7.216   1.624  0.00  0.00    -0.273 OA
ATOM      7  C           0      -5.673  -4.695   1.814  0.00  0.00     0.231 A 
ATOM      8  O           0      -5.287  -3.594   1.486  0.00  0.00    -0.273 OA
BRANCH   5   9
ATOM      9  C           0      -7.707  -4.648   0.428  0.00  0.00     0.144 C 
BRANCH   9  10
ATOM     10  C           0      -8.762  -3.844   1.191  0.00  0.00     0.123 C 
BRANCH  10  11
ATOM     11  C           0      -9.700  -3.189   0.211  0.00  0.00     0.219 C 
ATOM     12  N           0     -10.717  -2.425   0.658  0.00  0.00    -0.359 N 
ATOM     13  H           0     -10.843  -2.297   1.611  0.00  0.00     0.162 HD
ATOM     14  O           0      -9.542  -3.350  -0.981  0.00  0.00    -0.274 OA
BRANCH  12  15
ATOM     15  C           0     -11.629  -1.789  -0.294  0.00  0.00     0.142 C 
BRANCH  15  16
ATOM     16  C           0     -12.684  -0.985   0.469  0.00  0.00     0.144 C 
BRANCH  16  17
ATOM     17  N           0     -13.597  -0.348  -0.484  0.00  0.00    -0.335 N 
ATOM     18  C           0     -14.613   0.416  -0.036  0.00  0.00     0.360 C 
ATOM     19  O           0     -14.772   0.577   1.158  0.00  0.00    -0.239 OA
ATOM     20  H           0     -13.470  -0.477  -1.437  0.00  0.00     0.164 HD
BRANCH  18  21
ATOM     21  O           0     -15.451   1.001  -0.912  0.00  0.00    -0.302 OA
BRANCH  21  22
ATOM     22  C           0     -16.546   1.824  -0.429  0.00  0.00     0.208 C 
BRANCH  22  23
ATOM     23  C           0     -17.340   2.365  -1.620  0.00  0.00     0.151 C 
ATOM     24  N           0     -16.484   3.262  -2.390  0.00  0.00    -0.218 N 
ATOM     25  C           0     -16.132   4.477  -1.828  0.00  0.00     0.672 C 
ATOM     26  H           0     -16.169   3.013  -3.274  0.00  0.00     0.178 HD
ATOM     27  N           0     -15.018   5.084  -2.127  0.00  0.00    -0.235 N 
ATOM     28  N           0     -17.029   4.998  -0.932  0.00  0.00    -0.183 N 
ATOM     29  H           0     -14.404   4.684  -2.763  0.00  0.00     0.174 HD
ATOM     30  H           0     -14.805   5.936  -1.717  0.00  0.00     0.174 HD
ATOM     31  C           0     -18.362   4.477  -0.624  0.00  0.00     0.217 C 
ATOM     32  C           0     -16.845   6.153  -0.035  0.00  0.00     0.150 C 
ATOM     33  C           0     -18.589   3.051  -1.102  0.00  0.00     0.180 C 
ATOM     34  C           0     -18.507   4.603   0.901  0.00  0.00     0.209 C 
ATOM     35  N           0     -19.405   5.272  -1.294  0.00  0.00    -0.191 N 
ATOM     36  N           0     -19.559   3.198  -2.208  0.00  0.00    -0.216 N 
ATOM     37  C           0     -20.152   4.430  -2.080  0.00  0.00     0.670 C 
ATOM     38  H           0     -19.742   2.543  -2.900  0.00  0.00     0.178 HD
ATOM     39  N           0     -21.284   4.759  -2.635  0.00  0.00    -0.235 N 
ATOM     40  H           0     -21.762   4.115  -3.180  0.00  0.00     0.174 HD
ATOM     41  H           0     -21.648   5.648  -2.504  0.00  0.00     0.174 HD
ATOM     42  C           0     -17.500   5.713   1.296  0.00  0.00     0.093 C 
ATOM     43  H           0     -19.543   6.227  -1.194  0.00  0.00     0.180 HD
BRANCH  34  44
ATOM     44  O           0     -19.838   4.991   1.250  0.00  0.00    -0.362 OA
ATOM     45  H           0     -19.853   5.107   2.210  0.00  0.00     0.213 HD
ENDBRANCH  34  44
BRANCH  34  46
ATOM     46  O           0     -18.164   3.370   1.537  0.00  0.00    -0.362 OA
ATOM     47  H           0     -18.218   3.522   2.490  0.00  0.00     0.213 HD
ENDBRANCH  34  46
ENDBRANCH  22  23
ENDBRANCH  21  22
ENDBRANCH  18  21
ENDBRANCH  16  17
ENDBRANCH  15  16
ENDBRANCH  12  15
ENDBRANCH  10  11
ENDBRANCH   9  10
ENDBRANCH   5   9
ENDBRANCH   1   2
BRANCH   1  48
ATOM     48  C           0      -2.662  -4.769   2.342  0.00  0.00     0.063 C 
BRANCH  48  49
ATOM     49  C           0      -1.295  -5.135   1.824  0.00  0.00     0.075 A 
ATOM     50  N           0      -0.518  -6.136   2.252  0.00  0.00    -0.135 NA
ATOM     51  N           0       0.572  -6.138   1.569  0.00  0.00    -0.066 NA
ATOM     52  N           0       0.561  -5.178   0.713  0.00  0.00    -0.261 N 
ATOM     53  C           0      -0.609  -4.510   0.838  0.00  0.00     0.142 A 
BRANCH  52  54
ATOM     54  C           0       1.633  -4.861  -0.235  0.00  0.00     0.154 C 
BRANCH  54  55
ATOM     55  C           0       2.946  -4.666   0.526  0.00  0.00     0.041 C 
BRANCH  55  56
ATOM     56  C           0       4.064  -4.335  -0.464  0.00  0.00     0.124 C 
BRANCH  56  57
ATOM     57  N           0       5.322  -4.148   0.264  0.00  0.00    -0.361 N 
ATOM     58  C           0       6.451  -3.847  -0.407  0.00  0.00     0.217 C 
ATOM     59  O           0       6.426  -3.731  -1.614  0.00  0.00    -0.274 OA
ATOM     60  H           0       5.341  -4.241   1.229  0.00  0.00     0.162 HD
BRANCH  58  61
ATOM     61  C           0       7.744  -3.655   0.342  0.00  0.00     0.103 C 
BRANCH  61  62
ATOM     62  C           0       8.863  -3.324  -0.648  0.00  0.00     0.009 C 
BRANCH  62  63
ATOM     63  C           0      10.176  -3.130   0.113  0.00  0.00     0.002 C 
BRANCH  63  64
ATOM     64  C           0      11.295  -2.799  -0.877  0.00  0.00     0.020 C 
BRANCH  64  65
ATOM     65  C           0      12.608  -2.604  -0.116  0.00  0.00     0.129 C 
BRANCH  65  66
ATOM     66  N           0      13.679  -2.287  -1.064  0.00  0.00    -0.349 N 
ATOM     67  C           0      14.108  -3.155  -2.018  0.00  0.00     0.042 A 
ATOM     68  C           0      15.134  -2.576  -2.773  0.00  0.00    -0.017 A 
ATOM     69  C           0      13.692  -4.456  -2.337  0.00  0.00     0.030 A 
ATOM     70  C           0      15.339  -1.199  -2.183  0.00  0.00     0.024 A 
ATOM     71  C           0      15.727  -3.263  -3.802  0.00  0.00     0.010 A 
ATOM     72  C           0      14.316  -1.144  -1.068  0.00  0.00     0.024 A 
ATOM     73  C           0      15.059  -0.117  -3.228  0.00  0.00     0.027 C 
ATOM     74  C           0      16.756  -1.053  -1.624  0.00  0.00     0.027 C 
ATOM     75  C           0      14.092  -0.066  -0.198  0.00  0.00     0.026 C 
ATOM     76  C           0      15.303  -4.547  -4.110  0.00  0.00     0.001 A 
ATOM     77  C           0      14.290  -5.136  -3.374  0.00  0.00     0.002 A 
BRANCH  75  78
ATOM     78  C           0      14.855   1.062  -0.299  0.00  0.00     0.002 C 
ATOM     79  C           0      14.668   2.118   0.604  0.00  0.00     0.000 C 
BRANCH  79  80
ATOM     80  C           0      15.430   3.245   0.503  0.00  0.00     0.002 C 
BRANCH  80  81
ATOM     81  C           0      15.243   4.304   1.410  0.00  0.00     0.026 C 
BRANCH  81  82
ATOM     82  C           0      16.033   5.400   1.343  0.00  0.00     0.024 A 
ATOM     83  C           0      15.969   6.616   2.243  0.00  0.00     0.024 A 
ATOM     84  C           0      17.068   7.516   1.728  0.00  0.00    -0.017 A 
ATOM     85  C           0      14.609   7.305   2.118  0.00  0.00     0.027 C 
ATOM     86  C           0      16.239   6.219   3.696  0.00  0.00     0.027 C 
ATOM     87  C           0      17.657   6.857   0.656  0.00  0.00     0.041 A 
ATOM     88  C           0      17.515   8.758   2.121  0.00  0.00     0.010 A 
ATOM     89  N           0      17.041   5.625   0.446  0.00  0.00    -0.353 N 
ATOM     90  C           0      18.710   7.472  -0.019  0.00  0.00     0.030 A 
ATOM     91  C           0      17.426   4.684  -0.609  0.00  0.00     0.156 C 
ATOM     92  C           0      19.156   8.715   0.378  0.00  0.00     0.002 A 
ATOM     93  C           0      18.562   9.362   1.446  0.00  0.00     0.001 A 
ENDBRANCH  81  82
ENDBRANCH  80  81
ENDBRANCH  79  80
ENDBRANCH  75  78
ENDBRANCH  65  66
ENDBRANCH  64  65
ENDBRANCH  63  64
ENDBRANCH  62  63
ENDBRANCH  61  62
ENDBRANCH  58  61
ENDBRANCH  56  57
ENDBRANCH  55  56
ENDBRANCH  54  55
ENDBRANCH  52  54
ENDBRANCH  48  49
ENDBRANCH   1  48
TORSDOF 28
