REMARK  20 active torsions:
REMARK  status: ('A' for Active; 'I' for Inactive)
REMARK    1  A    between atoms: C_6  and  C_7 
REMARK    2  A    between atoms: C_7  and  O_8 
REMARK    3  A    between atoms: O_8  and  C_9 
REMARK       I    between atoms: C_9  and  N_10 
REMARK    4  A    between atoms: N_10  and  C_11 
REMARK    5  A    between atoms: C_11  and  C_12 
REMARK    6  A    between atoms: C_12  and  N_13 
REMARK       I    between atoms: N_13  and  C_14 
REMARK    7  A    between atoms: C_14  and  C_15 
REMARK    8  A    between atoms: C_15  and  C_16 
REMARK    9  A    between atoms: C_16  and  N_17 
REMARK   10  A    between atoms: C_20  and  C_21 
REMARK   11  A    between atoms: C_21  and  C_22 
REMARK   12  A    between atoms: C_22  and  C_23 
REMARK   13  A    between atoms: C_23  and  C_24 
REMARK   14  A    between atoms: C_24  and  C_25 
REMARK   15  A    between atoms: C_25  and  C_26 
REMARK   16  A    between atoms: C_26  and  C_27 
REMARK   17  A    between atoms: C_27  and  C_28 
REMARK   18  A    between atoms: C_28  and  C_29 
REMARK   19  A    between atoms: C_48  and  O_49 
REMARK   20  A    between atoms: C_48  and  O_50 
ROOT
ATOM      1  C           0      -4.615  -0.924  -0.101  0.00  0.00     0.360 C 
ATOM      2  N           0      -3.432  -1.091  -0.724  0.00  0.00    -0.335 N 
ATOM      3  O           0      -4.703  -1.109   1.097  0.00  0.00    -0.239 OA
ATOM      4  H           0      -3.362  -0.943  -1.680  0.00  0.00     0.164 HD
ENDROOT
BRANCH   1   5
ATOM      5  O           0      -5.701  -0.552  -0.806  0.00  0.00    -0.302 OA
BRANCH   5   6
ATOM      6  C           0      -6.976  -0.373  -0.135  0.00  0.00     0.208 C 
BRANCH   6   7
ATOM      7  C           0      -8.035   0.047  -1.156  0.00  0.00     0.151 C 
ATOM      8  N           0      -7.682   1.360  -1.688  0.00  0.00    -0.218 N 
ATOM      9  C           0      -7.781   2.456  -0.849  0.00  0.00     0.672 C 
ATOM     10  H           0      -7.386   1.462  -2.607  0.00  0.00     0.178 HD
ATOM     11  N           0      -7.031   3.513  -0.996  0.00  0.00    -0.235 N 
ATOM     12  N           0      -8.714   2.357   0.149  0.00  0.00    -0.183 N 
ATOM     13  H           0      -6.378   3.548  -1.711  0.00  0.00     0.174 HD
ATOM     14  H           0      -7.130   4.265  -0.392  0.00  0.00     0.174 HD
ATOM     15  C           0      -9.698   1.287   0.325  0.00  0.00     0.217 C 
ATOM     16  C           0      -8.909   3.258   1.299  0.00  0.00     0.150 C 
ATOM     17  C           0      -9.393   0.035  -0.483  0.00  0.00     0.180 C 
ATOM     18  C           0      -9.725   1.003   1.837  0.00  0.00     0.209 C 
ATOM     19  N           0     -11.030   1.716  -0.128  0.00  0.00    -0.191 N 
ATOM     20  N           0     -10.449   0.016  -1.518  0.00  0.00    -0.216 N 
ATOM     21  C           0     -11.462   0.840  -1.092  0.00  0.00     0.670 C 
ATOM     22  H           0     -10.429  -0.487  -2.347  0.00  0.00     0.178 HD
ATOM     23  N           0     -12.682   0.795  -1.548  0.00  0.00    -0.235 N 
ATOM     24  H           0     -12.921   0.150  -2.232  0.00  0.00     0.174 HD
ATOM     25  H           0     -13.351   1.407  -1.203  0.00  0.00     0.174 HD
ATOM     26  C           0      -9.200   2.309   2.486  0.00  0.00     0.093 C 
ATOM     27  H           0     -11.522   2.485   0.201  0.00  0.00     0.180 HD
BRANCH  18  28
ATOM     28  O           0     -11.058   0.731   2.273  0.00  0.00    -0.362 OA
ATOM     29  H           0     -11.020   0.615   3.232  0.00  0.00     0.213 HD
ENDBRANCH  18  28
BRANCH  18  30
ATOM     30  O           0      -8.863  -0.092   2.153  0.00  0.00    -0.362 OA
ATOM     31  H           0      -8.875  -0.188   3.115  0.00  0.00     0.213 HD
ENDBRANCH  18  30
ENDBRANCH   6   7
ENDBRANCH   5   6
ENDBRANCH   1   5
BRANCH   2  32
ATOM     32  C           0      -2.251  -1.496   0.043  0.00  0.00     0.144 C 
BRANCH  32  33
ATOM     33  C           0      -1.049  -1.613  -0.895  0.00  0.00     0.142 C 
BRANCH  33  34
ATOM     34  N           0       0.132  -2.017  -0.128  0.00  0.00    -0.359 N 
ATOM     35  C           0       1.316  -2.184  -0.751  0.00  0.00     0.219 C 
ATOM     36  O           0       1.403  -1.999  -1.947  0.00  0.00    -0.274 OA
ATOM     37  H           0       0.062  -2.165   0.828  0.00  0.00     0.162 HD
BRANCH  35  38
ATOM     38  C           0       2.530  -2.600   0.038  0.00  0.00     0.123 C 
BRANCH  38  39
ATOM     39  C           0       3.733  -2.717  -0.901  0.00  0.00     0.144 C 
BRANCH  39  40
ATOM     40  N           0       4.914  -3.121  -0.134  0.00  0.00    -0.288 N 
ATOM     41  C           0       5.751  -2.240   0.427  0.00  0.00     0.231 A 
ATOM     42  C           0       6.854  -2.987   1.143  0.00  0.00     0.087 A 
ATOM     43  O           0       5.638  -1.034   0.375  0.00  0.00    -0.273 OA
ATOM     44  C           0       6.512  -4.469   0.888  0.00  0.00     0.117 A 
ATOM     45  C           0       5.248  -4.403   0.060  0.00  0.00     0.227 A 
ATOM     46  O           0       4.634  -5.360  -0.362  0.00  0.00    -0.273 OA
BRANCH  42  47
ATOM     47  C           0       8.215  -2.637   0.538  0.00  0.00     0.014 C 
BRANCH  47  48
ATOM     48  C           0       8.585  -1.200   0.912  0.00  0.00     0.001 C 
BRANCH  48  49
ATOM     49  C           0       9.946  -0.850   0.307  0.00  0.00     0.000 C 
BRANCH  49  50
ATOM     50  C           0      10.316   0.587   0.681  0.00  0.00     0.000 C 
BRANCH  50  51
ATOM     51  C           0      11.677   0.937   0.076  0.00  0.00     0.000 C 
BRANCH  51  52
ATOM     52  C           0      12.047   2.374   0.449  0.00  0.00     0.000 C 
BRANCH  52  53
ATOM     53  C           0      13.408   2.724  -0.155  0.00  0.00     0.007 C 
BRANCH  53  54
ATOM     54  C           0      13.778   4.161   0.218  0.00  0.00     0.077 C 
BRANCH  54  55
ATOM     55  C           0      15.119   4.505  -0.378  0.00  0.00     0.123 C 
ATOM     56  C           0      15.713   5.872  -0.155  0.00  0.00     0.091 C 
ATOM     57  O           0      15.717   3.686  -1.033  0.00  0.00    -0.298 OA
ENDBRANCH  54  55
ENDBRANCH  53  54
ENDBRANCH  52  53
ENDBRANCH  51  52
ENDBRANCH  50  51
ENDBRANCH  49  50
ENDBRANCH  48  49
ENDBRANCH  47  48
ENDBRANCH  42  47
ENDBRANCH  39  40
ENDBRANCH  38  39
ENDBRANCH  35  38
ENDBRANCH  33  34
ENDBRANCH  32  33
ENDBRANCH   2  32
TORSDOF 20
