REMARK  5 active torsions:
REMARK  status: ('A' for Active; 'I' for Inactive)
REMARK    1  A    between atoms: C_6  and  C_7 
REMARK    2  A    between atoms: C_7  and  O_8 
REMARK    3  A    between atoms: O_8  and  C_9 
REMARK       I    between atoms: C_9  and  N_10 
REMARK    4  A    between atoms: C_27  and  O_28 
REMARK    5  A    between atoms: C_27  and  O_29 
ROOT
ATOM      1  N           0       0.353  -0.762   3.013  0.00  0.00    -0.235 N 
ATOM      2  H           0      -0.367  -1.364   3.259  0.00  0.00     0.174 HD
ATOM      3  H           0       0.756  -0.188   3.683  0.00  0.00     0.174 HD
ATOM      4  C           0       0.782  -0.729   1.782  0.00  0.00     0.672 C 
ATOM      5  N           0       0.242  -1.532   0.792  0.00  0.00    -0.218 N 
ATOM      6  C           0       0.283  -1.052  -0.586  0.00  0.00     0.151 C 
ATOM      7  C           0       1.669  -0.605  -1.009  0.00  0.00     0.180 C 
ATOM      8  N           0       2.500  -1.796  -1.289  0.00  0.00    -0.216 N 
ATOM      9  C           0       3.760  -1.546  -0.803  0.00  0.00     0.670 C 
ATOM     10  N           0       4.829  -2.191  -1.176  0.00  0.00    -0.235 N 
ATOM     11  H           0       4.763  -2.898  -1.836  0.00  0.00     0.174 HD
ATOM     12  H           0       5.691  -1.964  -0.792  0.00  0.00     0.174 HD
ATOM     13  C           0       2.442   0.133   0.073  0.00  0.00     0.217 C 
ATOM     14  N           0       3.754  -0.532   0.123  0.00  0.00    -0.191 N 
ATOM     15  N           0       1.791   0.107   1.384  0.00  0.00    -0.183 N 
ATOM     16  C           0       2.413   1.204   2.149  0.00  0.00     0.150 C 
ATOM     17  C           0       2.602   2.336   1.111  0.00  0.00     0.093 C 
ATOM     18  C           0       2.623   1.623  -0.264  0.00  0.00     0.209 C 
ATOM     19  H           0      -0.152  -2.391   1.008  0.00  0.00     0.178 HD
ATOM     20  H           0       2.207  -2.607  -1.733  0.00  0.00     0.178 HD
ATOM     21  H           0       4.490  -0.293   0.707  0.00  0.00     0.180 HD
ENDROOT
BRANCH   6  22
ATOM     22  C           0      -0.679   0.130  -0.727  0.00  0.00     0.208 C 
BRANCH  22  23
ATOM     23  O           0      -2.040  -0.326  -0.511  0.00  0.00    -0.302 OA
BRANCH  23  24
ATOM     24  C           0      -3.062   0.547  -0.586  0.00  0.00     0.362 C 
ATOM     25  N           0      -4.326   0.124  -0.385  0.00  0.00    -0.328 N 
ATOM     26  C           0      -4.731  -1.261  -0.085  0.00  0.00     0.128 C 
ATOM     27  C           0      -5.530   0.966  -0.437  0.00  0.00     0.128 C 
ATOM     28  C           0      -6.092  -1.125   0.647  0.00  0.00     0.022 C 
ATOM     29  C           0      -6.738   0.059  -0.121  0.00  0.00     0.022 C 
ATOM     30  O           0      -2.846   1.717  -0.833  0.00  0.00    -0.238 OA
ENDBRANCH  23  24
ENDBRANCH  22  23
ENDBRANCH   6  22
BRANCH  18  31
ATOM     31  O           0       3.873   1.842  -0.920  0.00  0.00    -0.362 OA
ATOM     32  H           0       3.954   2.795  -1.057  0.00  0.00     0.213 HD
ENDBRANCH  18  31
BRANCH  18  33
ATOM     33  O           0       1.543   2.082  -1.080  0.00  0.00    -0.362 OA
ATOM     34  H           0       1.677   3.031  -1.213  0.00  0.00     0.213 HD
ENDBRANCH  18  33
TORSDOF 5
