REMARK  6 active torsions:
REMARK  status: ('A' for Active; 'I' for Inactive)
REMARK    1  A    between atoms: C_6  and  C_7 
REMARK    2  A    between atoms: C_7  and  O_8 
REMARK    3  A    between atoms: O_8  and  C_9 
REMARK       I    between atoms: C_9  and  N_10 
REMARK    4  A    between atoms: N_10  and  C_11 
REMARK    5  A    between atoms: C_29  and  O_30 
REMARK    6  A    between atoms: C_29  and  O_31 
ROOT
ATOM      1  N           0      -1.169   0.310  -3.150  0.00  0.00    -0.235 N 
ATOM      2  H           0      -0.559  -0.245  -3.661  0.00  0.00     0.174 HD
ATOM      3  H           0      -1.474   1.156  -3.512  0.00  0.00     0.174 HD
ATOM      4  C           0      -1.584  -0.086  -1.979  0.00  0.00     0.672 C 
ATOM      5  N           0      -1.182  -1.287  -1.422  0.00  0.00    -0.218 N 
ATOM      6  C           0      -1.140  -1.396   0.033  0.00  0.00     0.151 C 
ATOM      7  C           0      -2.432  -0.951   0.690  0.00  0.00     0.180 C 
ATOM      8  N           0      -3.447  -2.015   0.535  0.00  0.00    -0.216 N 
ATOM      9  C           0      -4.650  -1.406   0.274  0.00  0.00     0.670 C 
ATOM     10  N           0      -5.811  -1.977   0.435  0.00  0.00    -0.235 N 
ATOM     11  H           0      -5.861  -2.890   0.758  0.00  0.00     0.174 HD
ATOM     12  H           0      -6.624  -1.489   0.231  0.00  0.00     0.174 HD
ATOM     13  C           0      -3.075   0.264   0.040  0.00  0.00     0.217 C 
ATOM     14  N           0      -4.479  -0.121  -0.178  0.00  0.00    -0.191 N 
ATOM     15  N           0      -2.441   0.665  -1.217  0.00  0.00    -0.183 N 
ATOM     16  C           0      -2.875   2.055  -1.446  0.00  0.00     0.150 C 
ATOM     17  C           0      -2.872   2.695  -0.038  0.00  0.00     0.093 C 
ATOM     18  C           0      -3.007   1.505   0.945  0.00  0.00     0.209 C 
ATOM     19  H           0      -0.936  -2.038  -1.984  0.00  0.00     0.178 HD
ATOM     20  H           0      -3.292  -2.970   0.606  0.00  0.00     0.178 HD
ATOM     21  H           0      -5.167   0.439  -0.571  0.00  0.00     0.180 HD
ENDROOT
BRANCH   6  22
ATOM     22  C           0       0.004  -0.527   0.560  0.00  0.00     0.208 C 
BRANCH  22  23
ATOM     23  O           0       1.271  -1.059   0.092  0.00  0.00    -0.302 OA
BRANCH  23  24
ATOM     24  C           0       2.423  -0.452   0.433  0.00  0.00     0.360 C 
ATOM     25  N           0       3.600  -0.946  -0.002  0.00  0.00    -0.332 N 
ATOM     26  H           0       3.616  -1.738  -0.561  0.00  0.00     0.165 HD
ATOM     27  O           0       2.403   0.540   1.134  0.00  0.00    -0.239 OA
BRANCH  25  28
ATOM     28  C           0       4.854  -0.286   0.370  0.00  0.00     0.086 C 
ATOM     29  C           0       5.138   0.856  -0.608  0.00  0.00     0.025 C 
ATOM     30  C           0       6.448   1.546  -0.219  0.00  0.00     0.002 C 
ATOM     31  C           0       7.593   0.532  -0.272  0.00  0.00     0.000 C 
ATOM     32  C           0       7.308  -0.610   0.706  0.00  0.00     0.002 C 
ATOM     33  C           0       5.998  -1.299   0.318  0.00  0.00     0.025 C 
ENDBRANCH  25  28
ENDBRANCH  23  24
ENDBRANCH  22  23
ENDBRANCH   6  22
BRANCH  18  34
ATOM     34  O           0      -4.203   1.630   1.718  0.00  0.00    -0.362 OA
ATOM     35  H           0      -4.125   2.451   2.223  0.00  0.00     0.213 HD
ENDBRANCH  18  34
BRANCH  18  36
ATOM     36  O           0      -1.865   1.433   1.801  0.00  0.00    -0.362 OA
ATOM     37  H           0      -1.840   2.259   2.304  0.00  0.00     0.213 HD
ENDBRANCH  18  36
TORSDOF 6
