REMARK  4 active torsions:
REMARK  status: ('A' for Active; 'I' for Inactive)
REMARK    1  A    between atoms: C_6  and  C_7 
REMARK    2  A    between atoms: C_7  and  O_8 
REMARK    3  A    between atoms: O_8  and  C_9 
REMARK       I    between atoms: C_9  and  N_10 
REMARK    4  A    between atoms: C_23  and  O_24 
ROOT
ATOM      1  N           0       0.128   0.309  -2.988  0.00  0.00    -0.235 N 
ATOM      2  H           0       0.703  -0.263  -3.519  0.00  0.00     0.174 HD
ATOM      3  H           0      -0.220   1.132  -3.365  0.00  0.00     0.174 HD
ATOM      4  C           0      -0.181  -0.031  -1.768  0.00  0.00     0.672 C 
ATOM      5  N           0       0.286  -1.196  -1.188  0.00  0.00    -0.218 N 
ATOM      6  C           0       0.462  -1.229   0.261  0.00  0.00     0.151 C 
ATOM      7  C           0      -0.774  -0.766   1.009  0.00  0.00     0.177 C 
ATOM      8  N           0      -1.769  -1.856   1.026  0.00  0.00    -0.216 N 
ATOM      9  C           0      -2.930  -1.395   0.458  0.00  0.00     0.670 C 
ATOM     10  N           0      -3.933  -2.157   0.123  0.00  0.00    -0.235 N 
ATOM     11  H           0      -3.886  -3.115   0.273  0.00  0.00     0.174 HD
ATOM     12  H           0      -4.727  -1.767  -0.275  0.00  0.00     0.174 HD
ATOM     13  C           0      -1.502   0.390   0.346  0.00  0.00     0.187 C 
ATOM     14  N           0      -2.905  -0.032   0.285  0.00  0.00    -0.194 N 
ATOM     15  N           0      -0.987   0.750  -0.975  0.00  0.00    -0.186 N 
ATOM     16  C           0      -1.466   2.112  -1.255  0.00  0.00     0.147 C 
ATOM     17  C           0      -1.728   2.780   0.112  0.00  0.00     0.057 C 
ATOM     18  C           0      -1.385   1.694   1.158  0.00  0.00     0.172 C 
ATOM     19  H           0       0.491  -1.973  -1.731  0.00  0.00     0.178 HD
ATOM     20  H           0      -1.627  -2.747   1.381  0.00  0.00     0.178 HD
ATOM     21  H           0      -3.673   0.545   0.146  0.00  0.00     0.180 HD
ENDROOT
BRANCH   6  22
ATOM     22  C           0       1.635  -0.322   0.638  0.00  0.00     0.208 C 
BRANCH  22  23
ATOM     23  O           0       2.863  -0.862   0.082  0.00  0.00    -0.302 OA
BRANCH  23  24
ATOM     24  C           0       4.032  -0.225   0.286  0.00  0.00     0.358 C 
ATOM     25  N           0       5.171  -0.726  -0.230  0.00  0.00    -0.346 N 
ATOM     26  H           0       5.150  -1.546  -0.749  0.00  0.00     0.161 HD
ATOM     27  H           0       6.013  -0.268  -0.083  0.00  0.00     0.161 HD
ATOM     28  O           0       4.059   0.801   0.936  0.00  0.00    -0.239 OA
ENDBRANCH  23  24
ENDBRANCH  22  23
ENDBRANCH   6  22
BRANCH  18  29
ATOM     29  O           0      -0.060   1.876   1.662  0.00  0.00    -0.391 OA
ATOM     30  H           0      -0.040   2.743   2.090  0.00  0.00     0.210 HD
ENDBRANCH  18  29
TORSDOF 4
