REMARK  11 active torsions:
REMARK  status: ('A' for Active; 'I' for Inactive)
REMARK    1  A    between atoms: C_6  and  C_7 
REMARK    2  A    between atoms: C_7  and  O_8 
REMARK    3  A    between atoms: O_8  and  C_9 
REMARK       I    between atoms: C_9  and  N_10 
REMARK    4  A    between atoms: N_10  and  C_11 
REMARK    5  A    between atoms: C_11  and  C_12 
REMARK    6  A    between atoms: C_12  and  C_13 
REMARK    7  A    between atoms: C_13  and  C_14 
REMARK    8  A    between atoms: C_14  and  C_15 
REMARK    9  A    between atoms: C_15  and  C_16 
REMARK   10  A    between atoms: C_30  and  O_31 
REMARK   11  A    between atoms: C_30  and  O_32 
ROOT
ATOM      1  N           0      -1.958  -0.580  -3.109  0.00  0.00    -0.235 N 
ATOM      2  H           0      -1.303  -1.221  -3.426  0.00  0.00     0.174 HD
ATOM      3  H           0      -2.305   0.096  -3.711  0.00  0.00     0.174 HD
ATOM      4  C           0      -2.375  -0.630  -1.875  0.00  0.00     0.672 C 
ATOM      5  N           0      -1.914  -1.580  -0.980  0.00  0.00    -0.218 N 
ATOM      6  C           0      -1.899  -1.241   0.441  0.00  0.00     0.151 C 
ATOM      7  C           0      -3.232  -0.705   0.928  0.00  0.00     0.180 C 
ATOM      8  N           0      -4.175  -1.831   1.098  0.00  0.00    -0.216 N 
ATOM      9  C           0      -5.407  -1.409   0.659  0.00  0.00     0.670 C 
ATOM     10  N           0      -6.533  -1.980   0.981  0.00  0.00    -0.235 N 
ATOM     11  H           0      -6.535  -2.755   1.565  0.00  0.00     0.174 HD
ATOM     12  H           0      -7.370  -1.631   0.636  0.00  0.00     0.174 HD
ATOM     13  C           0      -3.932   0.212  -0.062  0.00  0.00     0.217 C 
ATOM     14  N           0      -5.304  -0.312  -0.159  0.00  0.00    -0.191 N 
ATOM     15  N           0      -3.294   0.257  -1.379  0.00  0.00    -0.183 N 
ATOM     16  C           0      -3.808   1.481  -2.019  0.00  0.00     0.150 C 
ATOM     17  C           0      -3.877   2.515  -0.870  0.00  0.00     0.093 C 
ATOM     18  C           0      -3.962   1.670   0.427  0.00  0.00     0.209 C 
ATOM     19  H           0      -1.608  -2.447  -1.288  0.00  0.00     0.178 HD
ATOM     20  H           0      -3.963  -2.708   1.454  0.00  0.00     0.178 HD
ATOM     21  H           0      -6.016   0.057  -0.705  0.00  0.00     0.180 HD
ENDROOT
BRANCH   6  22
ATOM     22  C           0      -0.824  -0.181   0.685  0.00  0.00     0.208 C 
BRANCH  22  23
ATOM     23  O           0       0.484  -0.745   0.404  0.00  0.00    -0.302 OA
BRANCH  23  24
ATOM     24  C           0       1.589   0.011   0.551  0.00  0.00     0.360 C 
ATOM     25  N           0       2.803  -0.512   0.290  0.00  0.00    -0.337 N 
ATOM     26  H           0       2.881  -1.433  -0.004  0.00  0.00     0.164 HD
ATOM     27  O           0       1.491   1.165   0.919  0.00  0.00    -0.239 OA
BRANCH  25  28
ATOM     28  C           0       4.005   0.310   0.450  0.00  0.00     0.125 C 
BRANCH  28  29
ATOM     29  C           0       5.241  -0.518   0.092  0.00  0.00     0.020 C 
BRANCH  29  30
ATOM     30  C           0       6.496   0.341   0.259  0.00  0.00     0.002 C 
BRANCH  30  31
ATOM     31  C           0       7.732  -0.487  -0.099  0.00  0.00     0.000 C 
BRANCH  31  32
ATOM     32  C           0       8.987   0.372   0.068  0.00  0.00    -0.000 C 
BRANCH  32  33
ATOM     33  C           0      10.223  -0.456  -0.290  0.00  0.00    -0.005 C 
ATOM     34  C           0      11.478   0.403  -0.123  0.00  0.00     0.005 C 
ENDBRANCH  32  33
ENDBRANCH  31  32
ENDBRANCH  30  31
ENDBRANCH  29  30
ENDBRANCH  28  29
ENDBRANCH  25  28
ENDBRANCH  23  24
ENDBRANCH  22  23
ENDBRANCH   6  22
BRANCH  18  35
ATOM     35  O           0      -5.181   1.943   1.121  0.00  0.00    -0.362 OA
ATOM     36  H           0      -5.165   2.881   1.354  0.00  0.00     0.213 HD
ENDBRANCH  18  35
BRANCH  18  37
ATOM     37  O           0      -2.838   1.935   1.268  0.00  0.00    -0.362 OA
ATOM     38  H           0      -2.876   2.873   1.498  0.00  0.00     0.213 HD
ENDBRANCH  18  37
TORSDOF 11
