REMARK  22 active torsions:
REMARK  status: ('A' for Active; 'I' for Inactive)
REMARK    1  A    between atoms: C_6  and  C_7 
REMARK    2  A    between atoms: C_7  and  O_8 
REMARK    3  A    between atoms: O_8  and  C_9 
REMARK       I    between atoms: C_9  and  N_10 
REMARK    4  A    between atoms: N_10  and  C_11 
REMARK    5  A    between atoms: C_11  and  C_12 
REMARK    6  A    between atoms: C_12  and  C_13 
REMARK    7  A    between atoms: C_13  and  C_14 
REMARK    8  A    between atoms: C_14  and  C_15 
REMARK    9  A    between atoms: C_15  and  C_16 
REMARK   10  A    between atoms: C_16  and  N_17 
REMARK       I    between atoms: N_17  and  C_18 
REMARK   11  A    between atoms: C_18  and  C_19 
REMARK   12  A    between atoms: C_19  and  C_20 
REMARK   13  A    between atoms: C_20  and  C_21 
REMARK   14  A    between atoms: C_21  and  C_22 
REMARK   15  A    between atoms: C_22  and  C_23 
REMARK   16  A    between atoms: C_23  and  N_24 
REMARK   17  A    between atoms: C_28  and  S_29 
REMARK   18  A    between atoms: C_39  and  C_40 
REMARK   19  A    between atoms: C_41  and  C_42 
REMARK   20  A    between atoms: C_48  and  S_49 
REMARK   21  A    between atoms: C_71  and  O_72 
REMARK   22  A    between atoms: C_71  and  O_73 
ROOT
ATOM      1  N           0      -1.818   1.178   1.194  0.00  0.00    -0.361 N 
ATOM      2  C           0      -0.571   1.363   0.715  0.00  0.00     0.217 C 
ATOM      3  O           0      -0.359   1.270  -0.475  0.00  0.00    -0.274 OA
ATOM      4  H           0      -1.988   1.252   2.146  0.00  0.00     0.162 HD
ENDROOT
BRANCH   2   5
ATOM      5  C           0       0.558   1.685   1.659  0.00  0.00     0.103 C 
BRANCH   5   6
ATOM      6  C           0       1.856   1.845   0.866  0.00  0.00     0.009 C 
BRANCH   6   7
ATOM      7  C           0       3.003   2.172   1.824  0.00  0.00     0.002 C 
BRANCH   7   8
ATOM      8  C           0       4.301   2.332   1.031  0.00  0.00     0.020 C 
BRANCH   8   9
ATOM      9  C           0       5.448   2.659   1.989  0.00  0.00     0.129 C 
BRANCH   9  10
ATOM     10  N           0       6.691   2.812   1.230  0.00  0.00    -0.349 N 
ATOM     11  C           0       7.138   4.020   0.699  0.00  0.00     0.042 A 
ATOM     12  C           0       6.574   5.295   0.743  0.00  0.00     0.032 A 
ATOM     13  C           0       8.345   3.841   0.035  0.00  0.00    -0.016 A 
ATOM     14  C           0       7.212   6.356   0.134  0.00  0.00     0.028 A 
ATOM     15  C           0       8.413   6.165  -0.524  0.00  0.00     0.081 A 
ATOM     16  C           0       8.979   4.903  -0.572  0.00  0.00     0.036 A 
ATOM     17  C           0       8.697   2.376   0.158  0.00  0.00     0.024 A 
ATOM     18  C           0       7.557   1.787   0.961  0.00  0.00     0.024 A 
ATOM     19  C           0       8.776   1.727  -1.225  0.00  0.00     0.027 C 
ATOM     20  C           0      10.021   2.204   0.905  0.00  0.00     0.027 C 
ATOM     21  C           0       7.418   0.496   1.337  0.00  0.00     0.026 C 
BRANCH  15  22
ATOM     22  S           0       9.222   7.525  -1.298  0.00  0.00     0.137 S 
ATOM     23  O           0       8.173   8.444  -1.714  0.00  0.00    -0.591 OA
ATOM     24  O           0      10.100   8.107  -0.295  0.00  0.00    -0.591 OA
ATOM     25  O           0       9.957   6.978  -2.427  0.00  0.00    -0.591 OA
ENDBRANCH  15  22
BRANCH  21  26
ATOM     26  C           0       8.390  -0.454   0.965  0.00  0.00     0.004 C 
ATOM     27  C           0       8.264  -1.749   1.367  0.00  0.00     0.026 C 
BRANCH  27  28
ATOM     28  C           0       9.220  -2.701   0.975  0.00  0.00     0.024 A 
ATOM     29  C           0      10.423  -2.452   0.088  0.00  0.00     0.024 A 
ATOM     30  C           0      11.084  -3.810   0.013  0.00  0.00    -0.016 A 
ATOM     31  C           0       9.991  -1.984  -1.303  0.00  0.00     0.027 C 
ATOM     32  C           0      11.360  -1.431   0.737  0.00  0.00     0.027 C 
ATOM     33  C           0      10.280  -4.658   0.782  0.00  0.00     0.041 A 
ATOM     34  C           0      12.206  -4.283  -0.619  0.00  0.00     0.036 A 
ATOM     35  N           0       9.232  -3.966   1.305  0.00  0.00    -0.353 N 
ATOM     36  C           0      10.644  -6.008   0.896  0.00  0.00     0.032 A 
ATOM     37  C           0       8.211  -4.581   2.157  0.00  0.00     0.156 C 
ATOM     38  C           0      11.773  -6.473   0.258  0.00  0.00     0.028 A 
ATOM     39  C           0      12.556  -5.619  -0.498  0.00  0.00     0.081 A 
BRANCH  39  40
ATOM     40  S           0      13.997  -6.229  -1.308  0.00  0.00     0.137 S 
ATOM     41  O           0      14.171  -5.419  -2.503  0.00  0.00    -0.591 OA
ATOM     42  O           0      15.095  -6.070  -0.367  0.00  0.00    -0.591 OA
ATOM     43  O           0      13.733  -7.625  -1.619  0.00  0.00    -0.591 OA
ENDBRANCH  39  40
ENDBRANCH  27  28
ENDBRANCH  21  26
ENDBRANCH   9  10
ENDBRANCH   8   9
ENDBRANCH   7   8
ENDBRANCH   6   7
ENDBRANCH   5   6
ENDBRANCH   2   5
BRANCH   1  44
ATOM     44  C           0      -2.916   0.864   0.276  0.00  0.00     0.122 C 
BRANCH  44  45
ATOM     45  C           0      -4.214   0.705   1.069  0.00  0.00     0.020 C 
BRANCH  45  46
ATOM     46  C           0      -5.361   0.377   0.111  0.00  0.00     0.002 C 
BRANCH  46  47
ATOM     47  C           0      -6.659   0.218   0.904  0.00  0.00     0.002 C 
BRANCH  47  48
ATOM     48  C           0      -7.806  -0.109  -0.054  0.00  0.00     0.020 C 
BRANCH  48  49
ATOM     49  C           0      -9.104  -0.269   0.739  0.00  0.00     0.125 C 
BRANCH  49  50
ATOM     50  N           0     -10.202  -0.583  -0.178  0.00  0.00    -0.337 N 
ATOM     51  C           0     -11.448  -0.768   0.300  0.00  0.00     0.360 C 
ATOM     52  O           0     -11.661  -0.675   1.493  0.00  0.00    -0.239 OA
ATOM     53  H           0     -10.032  -0.657  -1.130  0.00  0.00     0.164 HD
BRANCH  51  54
ATOM     54  O           0     -12.457  -1.056  -0.543  0.00  0.00    -0.302 OA
BRANCH  54  55
ATOM     55  C           0     -13.800  -1.255  -0.028  0.00  0.00     0.208 C 
BRANCH  55  56
ATOM     56  C           0     -14.750  -1.567  -1.186  0.00  0.00     0.151 C 
ATOM     57  N           0     -14.832  -0.397  -2.057  0.00  0.00    -0.218 N 
ATOM     58  C           0     -15.477   0.731  -1.580  0.00  0.00     0.672 C 
ATOM     59  H           0     -14.445  -0.411  -2.946  0.00  0.00     0.178 HD
ATOM     60  N           0     -15.167   1.930  -1.984  0.00  0.00    -0.235 N 
ATOM     61  N           0     -16.459   0.505  -0.651  0.00  0.00    -0.183 N 
ATOM     62  H           0     -14.463   2.054  -2.640  0.00  0.00     0.174 HD
ATOM     63  H           0     -15.642   2.699  -1.632  0.00  0.00     0.174 HD
ATOM     64  C           0     -16.982  -0.795  -0.227  0.00  0.00     0.217 C 
ATOM     65  C           0     -17.170   1.499   0.174  0.00  0.00     0.150 C 
ATOM     66  C           0     -16.097  -1.968  -0.618  0.00  0.00     0.180 C 
ATOM     67  C           0     -17.156  -0.688   1.297  0.00  0.00     0.209 C 
ATOM     68  N           0     -18.281  -1.072  -0.862  0.00  0.00    -0.191 N 
ATOM     69  N           0     -16.876  -2.669  -1.661  0.00  0.00    -0.216 N 
ATOM     70  C           0     -18.181  -2.254  -1.552  0.00  0.00     0.670 C 
ATOM     71  H           0     -16.529  -3.305  -2.305  0.00  0.00     0.178 HD
ATOM     72  N           0     -19.199  -2.903  -2.044  0.00  0.00    -0.235 N 
ATOM     73  H           0     -19.058  -3.735  -2.523  0.00  0.00     0.174 HD
ATOM     74  H           0     -20.097  -2.554  -1.932  0.00  0.00     0.174 HD
ATOM     75  C           0     -17.279   0.833   1.567  0.00  0.00     0.093 C 
ATOM     76  H           0     -19.073  -0.516  -0.800  0.00  0.00     0.180 HD
BRANCH  67  77
ATOM     77  O           0     -18.342  -1.366   1.716  0.00  0.00    -0.362 OA
ATOM     78  H           0     -18.426  -1.218   2.668  0.00  0.00     0.213 HD
ENDBRANCH  67  77
BRANCH  67  79
ATOM     79  O           0     -16.012  -1.222   1.967  0.00  0.00    -0.362 OA
ATOM     80  H           0     -16.150  -1.077   2.913  0.00  0.00     0.213 HD
ENDBRANCH  67  79
ENDBRANCH  55  56
ENDBRANCH  54  55
ENDBRANCH  51  54
ENDBRANCH  49  50
ENDBRANCH  48  49
ENDBRANCH  47  48
ENDBRANCH  46  47
ENDBRANCH  45  46
ENDBRANCH  44  45
ENDBRANCH   1  44
TORSDOF 22
