REMARK  7 active torsions:
REMARK  status: ('A' for Active; 'I' for Inactive)
REMARK    1  A    between atoms: C_6  and  C_7 
REMARK    2  A    between atoms: C_7  and  O_8 
REMARK    3  A    between atoms: O_8  and  C_9 
REMARK       I    between atoms: C_9  and  N_10 
REMARK    4  A    between atoms: N_10  and  C_11 
REMARK    5  A    between atoms: C_11  and  C_12 
REMARK    6  A    between atoms: C_28  and  O_29 
REMARK    7  A    between atoms: C_28  and  O_30 
ROOT
ATOM      1  N           0       0.834  -0.607   3.083  0.00  0.00    -0.235 N 
ATOM      2  H           0       0.140  -1.215   3.383  0.00  0.00     0.174 HD
ATOM      3  H           0       1.228   0.024   3.705  0.00  0.00     0.174 HD
ATOM      4  C           0       1.241  -0.644   1.846  0.00  0.00     0.672 C 
ATOM      5  N           0       0.715  -1.531   0.923  0.00  0.00    -0.218 N 
ATOM      6  C           0       0.716  -1.146  -0.486  0.00  0.00     0.151 C 
ATOM      7  C           0       2.079  -0.683  -0.964  0.00  0.00     0.180 C 
ATOM      8  N           0       2.946  -1.861  -1.176  0.00  0.00    -0.216 N 
ATOM      9  C           0       4.204  -1.536  -0.732  0.00  0.00     0.670 C 
ATOM     10  N           0       5.290  -2.169  -1.080  0.00  0.00    -0.235 N 
ATOM     11  H           0       5.238  -2.922  -1.689  0.00  0.00     0.174 HD
ATOM     12  H           0       6.149  -1.886  -0.729  0.00  0.00     0.174 HD
ATOM     13  C           0       2.843   0.154   0.051  0.00  0.00     0.217 C 
ATOM     14  N           0       4.178  -0.462   0.122  0.00  0.00    -0.191 N 
ATOM     15  N           0       2.215   0.196   1.373  0.00  0.00    -0.183 N 
ATOM     16  C           0       2.810   1.363   2.049  0.00  0.00     0.150 C 
ATOM     17  C           0       2.943   2.427   0.934  0.00  0.00     0.093 C 
ATOM     18  C           0       2.966   1.622  -0.390  0.00  0.00     0.209 C 
ATOM     19  H           0       0.354  -2.386   1.204  0.00  0.00     0.178 HD
ATOM     20  H           0       2.675  -2.710  -1.560  0.00  0.00     0.178 HD
ATOM     21  H           0       4.914  -0.158   0.675  0.00  0.00     0.180 HD
ENDROOT
BRANCH   6  22
ATOM     22  C           0      -0.288  -0.010  -0.688  0.00  0.00     0.208 C 
BRANCH  22  23
ATOM     23  O           0      -1.629  -0.495  -0.417  0.00  0.00    -0.302 OA
BRANCH  23  24
ATOM     24  C           0      -2.682   0.336  -0.532  0.00  0.00     0.360 C 
ATOM     25  N           0      -3.927  -0.115  -0.280  0.00  0.00    -0.333 N 
ATOM     26  H           0      -4.065  -1.039  -0.016  0.00  0.00     0.164 HD
ATOM     27  O           0      -2.511   1.492  -0.863  0.00  0.00    -0.239 OA
BRANCH  25  28
ATOM     28  C           0      -5.073   0.789  -0.405  0.00  0.00     0.185 C 
BRANCH  28  29
ATOM     29  C           0      -6.359   0.032  -0.067  0.00  0.00     0.198 A 
ATOM     30  N           0      -6.268  -1.163   0.775  0.00  0.00    -0.157 NA
ATOM     31  N           0      -6.456  -1.384  -0.431  0.00  0.00    -0.157 NA
ATOM     32  C           0      -7.641   0.866  -0.020  0.00  0.00     0.073 C 
ENDBRANCH  28  29
ENDBRANCH  25  28
ENDBRANCH  23  24
ENDBRANCH  22  23
ENDBRANCH   6  22
BRANCH  18  33
ATOM     33  O           0       4.197   1.837  -1.082  0.00  0.00    -0.362 OA
ATOM     34  H           0       4.242   2.782  -1.285  0.00  0.00     0.213 HD
ENDBRANCH  18  33
BRANCH  18  35
ATOM     35  O           0       1.858   1.988  -1.215  0.00  0.00    -0.362 OA
ATOM     36  H           0       1.957   2.929  -1.414  0.00  0.00     0.213 HD
ENDBRANCH  18  35
TORSDOF 7
