REMARK  6 active torsions:
REMARK  status: ('A' for Active; 'I' for Inactive)
REMARK    1  A    between atoms: C_6  and  C_7 
REMARK    2  A    between atoms: C_7  and  O_8 
REMARK    3  A    between atoms: O_8  and  C_9 
REMARK    4  A    between atoms: C_9  and  C_10 
REMARK    5  A    between atoms: C_28  and  O_29 
REMARK    6  A    between atoms: C_28  and  O_30 
ROOT
ATOM      1  N           0       0.539  -0.691   3.038  0.00  0.00    -0.235 N 
ATOM      2  H           0      -0.188  -1.276   3.302  0.00  0.00     0.174 HD
ATOM      3  H           0       0.958  -0.112   3.694  0.00  0.00     0.174 HD
ATOM      4  C           0       0.955  -0.685   1.803  0.00  0.00     0.672 C 
ATOM      5  N           0       0.392  -1.496   0.832  0.00  0.00    -0.218 N 
ATOM      6  C           0       0.426  -1.040  -0.554  0.00  0.00     0.151 C 
ATOM      7  C           0       1.815  -0.624  -0.999  0.00  0.00     0.180 C 
ATOM      8  N           0       2.623  -1.833  -1.266  0.00  0.00    -0.216 N 
ATOM      9  C           0       3.892  -1.595  -0.798  0.00  0.00     0.670 C 
ATOM     10  N           0       4.947  -2.265  -1.170  0.00  0.00    -0.235 N 
ATOM     11  H           0       4.862  -2.982  -1.818  0.00  0.00     0.174 HD
ATOM     12  H           0       5.816  -2.045  -0.800  0.00  0.00     0.174 HD
ATOM     13  C           0       2.611   0.120   0.062  0.00  0.00     0.217 C 
ATOM     14  N           0       3.912  -0.566   0.110  0.00  0.00    -0.191 N 
ATOM     15  N           0       1.974   0.127   1.380  0.00  0.00    -0.183 N 
ATOM     16  C           0       2.622   1.226   2.120  0.00  0.00     0.150 C 
ATOM     17  C           0       2.818   2.337   1.061  0.00  0.00     0.093 C 
ATOM     18  C           0       2.813   1.600  -0.302  0.00  0.00     0.209 C 
ATOM     19  H           0      -0.014  -2.345   1.067  0.00  0.00     0.178 HD
ATOM     20  H           0       2.313  -2.646  -1.694  0.00  0.00     0.178 HD
ATOM     21  H           0       4.658  -0.330   0.683  0.00  0.00     0.180 HD
ENDROOT
BRANCH   6  22
ATOM     22  C           0      -0.517   0.155  -0.705  0.00  0.00     0.207 C 
BRANCH  22  23
ATOM     23  O           0      -1.884  -0.275  -0.468  0.00  0.00    -0.315 OA
BRANCH  23  24
ATOM     24  C           0      -2.893   0.614  -0.547  0.00  0.00     0.293 C 
ATOM     25  O           0      -2.659   1.776  -0.817  0.00  0.00    -0.259 OA
BRANCH  24  26
ATOM     26  C           0      -4.283   0.177  -0.305  0.00  0.00     0.039 A 
ATOM     27  C           0      -4.556  -1.158  -0.001  0.00  0.00     0.017 A 
ATOM     28  C           0      -5.856  -1.558   0.229  0.00  0.00     0.001 A 
ATOM     29  C           0      -6.890  -0.642   0.147  0.00  0.00     0.000 A 
ATOM     30  C           0      -6.627   0.681  -0.160  0.00  0.00     0.001 A 
ATOM     31  C           0      -5.331   1.096  -0.387  0.00  0.00     0.017 A 
ENDBRANCH  24  26
ENDBRANCH  23  24
ENDBRANCH  22  23
ENDBRANCH   6  22
BRANCH  18  32
ATOM     32  O           0       4.060   1.787  -0.975  0.00  0.00    -0.362 OA
ATOM     33  H           0       4.155   2.737  -1.128  0.00  0.00     0.213 HD
ENDBRANCH  18  32
BRANCH  18  34
ATOM     34  O           0       1.732   2.064  -1.115  0.00  0.00    -0.362 OA
ATOM     35  H           0       1.881   3.007  -1.265  0.00  0.00     0.213 HD
ENDBRANCH  18  34
TORSDOF 6
