REMARK  11 active torsions:
REMARK  status: ('A' for Active; 'I' for Inactive)
REMARK    1  A    between atoms: C_6  and  C_7 
REMARK    2  A    between atoms: C_7  and  O_8 
REMARK    3  A    between atoms: O_8  and  C_9 
REMARK       I    between atoms: C_9  and  N_10 
REMARK    4  A    between atoms: N_10  and  C_11 
REMARK    5  A    between atoms: C_11  and  C_12 
REMARK    6  A    between atoms: C_12  and  N_13 
REMARK       I    between atoms: N_13  and  C_14 
REMARK    7  A    between atoms: C_14  and  C_15 
REMARK    8  A    between atoms: C_18  and  C_19 
REMARK    9  A    between atoms: C_19  and  C_20 
REMARK   10  A    between atoms: C_42  and  O_43 
REMARK   11  A    between atoms: C_42  and  O_44 
ROOT
ATOM      1  C           0      -4.329  -0.258   0.668  0.00  0.00     0.208 C 
ENDROOT
BRANCH   1   2
ATOM      2  C           0      -5.525  -1.204   0.545  0.00  0.00     0.151 C 
ATOM      3  N           0      -5.656  -1.619  -0.848  0.00  0.00    -0.218 N 
ATOM      4  C           0      -6.062  -0.678  -1.778  0.00  0.00     0.672 C 
ATOM      5  H           0      -5.465  -2.532  -1.116  0.00  0.00     0.178 HD
ATOM      6  N           0      -5.712  -0.745  -3.032  0.00  0.00    -0.235 N 
ATOM      7  N           0      -6.850   0.333  -1.294  0.00  0.00    -0.183 N 
ATOM      8  H           0      -5.149  -1.473  -3.340  0.00  0.00     0.174 HD
ATOM      9  H           0      -6.017  -0.070  -3.658  0.00  0.00     0.174 HD
ATOM     10  C           0      -7.413   0.436   0.053  0.00  0.00     0.217 C 
ATOM     11  C           0      -7.263   1.569  -1.984  0.00  0.00     0.150 C 
ATOM     12  C           0      -6.762  -0.496   1.063  0.00  0.00     0.180 C 
ATOM     13  C           0      -7.257   1.914   0.450  0.00  0.00     0.209 C 
ATOM     14  N           0      -8.838   0.064   0.058  0.00  0.00    -0.191 N 
ATOM     15  N           0      -7.811  -1.497   1.351  0.00  0.00    -0.216 N 
ATOM     16  C           0      -9.012  -0.966   0.948  0.00  0.00     0.670 C 
ATOM     17  H           0      -7.675  -2.370   1.750  0.00  0.00     0.178 HD
ATOM     18  N           0     -10.174  -1.389   1.361  0.00  0.00    -0.235 N 
ATOM     19  H           0     -10.227  -2.123   1.992  0.00  0.00     0.174 HD
ATOM     20  H           0     -10.986  -0.968   1.037  0.00  0.00     0.174 HD
ATOM     21  C           0      -7.155   2.668  -0.901  0.00  0.00     0.093 C 
ATOM     22  H           0      -9.535   0.478  -0.475  0.00  0.00     0.180 HD
BRANCH  13  23
ATOM     23  O           0      -8.398   2.361   1.185  0.00  0.00    -0.362 OA
ATOM     24  H           0      -8.268   3.303   1.357  0.00  0.00     0.213 HD
ENDBRANCH  13  23
BRANCH  13  25
ATOM     25  O           0      -6.065   2.099   1.216  0.00  0.00    -0.362 OA
ATOM     26  H           0      -5.989   3.048   1.387  0.00  0.00     0.213 HD
ENDBRANCH  13  25
ENDBRANCH   1   2
BRANCH   1  27
ATOM     27  O           0      -3.107  -0.979   0.359  0.00  0.00    -0.302 OA
BRANCH  27  28
ATOM     28  C           0      -1.921  -0.345   0.402  0.00  0.00     0.360 C 
ATOM     29  N           0      -0.787  -1.014   0.115  0.00  0.00    -0.335 N 
ATOM     30  H           0      -0.826  -1.954  -0.124  0.00  0.00     0.164 HD
ATOM     31  O           0      -1.872   0.832   0.701  0.00  0.00    -0.239 OA
BRANCH  29  32
ATOM     32  C           0       0.504  -0.324   0.162  0.00  0.00     0.144 C 
BRANCH  32  33
ATOM     33  C           0       1.620  -1.303  -0.204  0.00  0.00     0.142 C 
BRANCH  33  34
ATOM     34  N           0       2.911  -0.613  -0.156  0.00  0.00    -0.355 N 
ATOM     35  C           0       4.045  -1.282  -0.444  0.00  0.00     0.251 C 
ATOM     36  O           0       3.996  -2.459  -0.742  0.00  0.00    -0.268 OA
ATOM     37  H           0       2.950   0.327   0.082  0.00  0.00     0.162 HD
BRANCH  35  38
ATOM     38  C           0       5.350  -0.584  -0.395  0.00  0.00     0.032 A 
ATOM     39  C           0       5.405   0.769  -0.058  0.00  0.00     0.018 A 
ATOM     40  C           0       6.619   1.418  -0.008  0.00  0.00     0.016 A 
ATOM     41  C           0       7.794   0.724  -0.305  0.00  0.00     0.015 A 
ATOM     42  C           0       7.738  -0.629  -0.648  0.00  0.00     0.016 A 
ATOM     43  C           0       6.524  -1.278  -0.693  0.00  0.00     0.018 A 
BRANCH  41  44
ATOM     44  C           0       9.098   1.421  -0.257  0.00  0.00     0.192 C 
ATOM     45  O           0       9.172   2.592  -0.573  0.00  0.00    -0.287 OA
BRANCH  44  46
ATOM     46  C           0      10.309   0.694   0.174  0.00  0.00     0.015 A 
ATOM     47  C           0      10.204  -0.599   0.693  0.00  0.00     0.015 A 
ATOM     48  C           0      11.340  -1.274   1.088  0.00  0.00     0.001 A 
ATOM     49  C           0      12.580  -0.669   0.983  0.00  0.00     0.000 A 
ATOM     50  C           0      12.691   0.614   0.476  0.00  0.00     0.001 A 
ATOM     51  C           0      11.564   1.299   0.072  0.00  0.00     0.015 A 
ENDBRANCH  44  46
ENDBRANCH  41  44
ENDBRANCH  35  38
ENDBRANCH  33  34
ENDBRANCH  32  33
ENDBRANCH  29  32
ENDBRANCH  27  28
ENDBRANCH   1  27
TORSDOF 11
