REMARK  5 active torsions:
REMARK  status: ('A' for Active; 'I' for Inactive)
REMARK    1  A    between atoms: C_6  and  C_7 
REMARK    2  A    between atoms: C_7  and  O_8 
REMARK    3  A    between atoms: O_8  and  C_9 
REMARK       I    between atoms: C_9  and  N_10 
REMARK    4  A    between atoms: C_24  and  O_25 
REMARK    5  A    between atoms: C_24  and  O_26 
ROOT
ATOM      1  N           0       0.525   1.631  -2.583  0.00  0.00    -0.235 N 
ATOM      2  H           0       1.182   1.434  -3.269  0.00  0.00     0.174 HD
ATOM      3  H           0       0.112   2.508  -2.545  0.00  0.00     0.174 HD
ATOM      4  C           0       0.192   0.716  -1.717  0.00  0.00     0.672 C 
ATOM      5  N           0       0.748  -0.551  -1.735  0.00  0.00    -0.218 N 
ATOM      6  C           0       0.854  -1.280  -0.474  0.00  0.00     0.151 C 
ATOM      7  C           0      -0.459  -1.327   0.283  0.00  0.00     0.180 C 
ATOM      8  N           0      -1.340  -2.341  -0.336  0.00  0.00    -0.216 N 
ATOM      9  C           0      -2.617  -1.834  -0.341  0.00  0.00     0.670 C 
ATOM     10  N           0      -3.692  -2.560  -0.469  0.00  0.00    -0.235 N 
ATOM     11  H           0      -3.619  -3.522  -0.570  0.00  0.00     0.174 HD
ATOM     12  H           0      -4.565  -2.138  -0.464  0.00  0.00     0.174 HD
ATOM     13  C           0      -1.269  -0.044   0.204  0.00  0.00     0.217 C 
ATOM     14  N           0      -2.620  -0.469  -0.193  0.00  0.00    -0.191 N 
ATOM     15  N           0      -0.730   0.949  -0.726  0.00  0.00    -0.179 N 
ATOM     16  C           0      -1.321   2.241  -0.348  0.00  0.00     0.106 C 
ATOM     17  C           0      -2.568   2.513  -1.192  0.00  0.00     0.033 C 
ATOM     18  C           0      -1.706   2.135   1.143  0.00  0.00     0.098 C 
ATOM     19  C           0      -1.323   0.688   1.560  0.00  0.00     0.210 C 
ATOM     20  H           0       1.059  -0.945  -2.565  0.00  0.00     0.178 HD
ATOM     21  H           0      -1.066  -3.207  -0.677  0.00  0.00     0.178 HD
ATOM     22  H           0      -3.384   0.114  -0.325  0.00  0.00     0.180 HD
ENDROOT
BRANCH   6  23
ATOM     23  C           0       1.905  -0.598   0.404  0.00  0.00     0.208 C 
BRANCH  23  24
ATOM     24  O           0       3.209  -0.712  -0.224  0.00  0.00    -0.302 OA
BRANCH  24  25
ATOM     25  C           0       4.293  -0.182   0.373  0.00  0.00     0.358 C 
ATOM     26  N           0       5.503  -0.287  -0.211  0.00  0.00    -0.346 N 
ATOM     27  H           0       5.593  -0.746  -1.061  0.00  0.00     0.161 HD
ATOM     28  H           0       6.284   0.095   0.220  0.00  0.00     0.161 HD
ATOM     29  O           0       4.180   0.392   1.438  0.00  0.00    -0.239 OA
ENDBRANCH  24  25
ENDBRANCH  23  24
ENDBRANCH   6  23
BRANCH  19  30
ATOM     30  O           0      -2.323   0.124   2.411  0.00  0.00    -0.362 OA
ATOM     31  H           0      -2.362   0.679   3.201  0.00  0.00     0.213 HD
ENDBRANCH  19  30
BRANCH  19  32
ATOM     32  O           0      -0.043   0.665   2.195  0.00  0.00    -0.362 OA
ATOM     33  H           0      -0.115   1.212   2.989  0.00  0.00     0.213 HD
ENDBRANCH  19  32
TORSDOF 5
