REMARK  11 active torsions:
REMARK  status: ('A' for Active; 'I' for Inactive)
REMARK    1  A    between atoms: C_6  and  C_7 
REMARK    2  A    between atoms: C_7  and  O_8 
REMARK    3  A    between atoms: O_8  and  C_9 
REMARK       I    between atoms: C_9  and  N_10 
REMARK    4  A    between atoms: N_10  and  C_11 
REMARK    5  A    between atoms: C_11  and  C_12 
REMARK    6  A    between atoms: C_12  and  C_13 
REMARK    7  A    between atoms: C_13  and  C_14 
REMARK    8  A    between atoms: C_14  and  C_15 
REMARK    9  A    between atoms: C_15  and  C_16 
REMARK   10  A    between atoms: C_31  and  O_32 
REMARK   11  A    between atoms: C_31  and  O_33 
ROOT
ATOM      1  N           0      -2.272  -0.849  -3.040  0.00  0.00    -0.235 N 
ATOM      2  H           0      -1.598  -1.499  -3.292  0.00  0.00     0.174 HD
ATOM      3  H           0      -2.631  -0.239  -3.703  0.00  0.00     0.174 HD
ATOM      4  C           0      -2.699  -0.798  -1.809  0.00  0.00     0.672 C 
ATOM      5  N           0      -2.222  -1.649  -0.828  0.00  0.00    -0.218 N 
ATOM      6  C           0      -2.230  -1.183   0.556  0.00  0.00     0.151 C 
ATOM      7  C           0      -3.580  -0.641   0.982  0.00  0.00     0.180 C 
ATOM      8  N           0      -4.496  -1.771   1.247  0.00  0.00    -0.216 N 
ATOM      9  C           0      -5.734  -1.424   0.764  0.00  0.00     0.670 C 
ATOM     10  N           0      -6.848  -1.993   1.128  0.00  0.00    -0.235 N 
ATOM     11  H           0      -6.836  -2.711   1.780  0.00  0.00     0.174 HD
ATOM     12  H           0      -7.690  -1.699   0.747  0.00  0.00     0.174 HD
ATOM     13  C           0      -4.295   0.164  -0.092  0.00  0.00     0.217 C 
ATOM     14  N           0      -5.652  -0.403  -0.150  0.00  0.00    -0.191 N 
ATOM     15  N           0      -3.646   0.105  -1.403  0.00  0.00    -0.183 N 
ATOM     16  C           0      -4.185   1.253  -2.155  0.00  0.00     0.150 C 
ATOM     17  C           0      -4.292   2.384  -1.105  0.00  0.00     0.093 C 
ATOM     18  C           0      -4.367   1.659   0.262  0.00  0.00     0.209 C 
ATOM     19  H           0      -1.891  -2.533  -1.053  0.00  0.00     0.178 HD
ATOM     20  H           0      -4.265  -2.606   1.683  0.00  0.00     0.178 HD
ATOM     21  H           0      -6.367  -0.104  -0.733  0.00  0.00     0.180 HD
ENDROOT
BRANCH   6  22
ATOM     22  C           0      -1.184  -0.077   0.710  0.00  0.00     0.208 C 
BRANCH  22  23
ATOM     23  O           0       0.141  -0.629   0.491  0.00  0.00    -0.302 OA
BRANCH  23  24
ATOM     24  C           0       1.224   0.166   0.576  0.00  0.00     0.360 C 
ATOM     25  N           0       2.454  -0.346   0.372  0.00  0.00    -0.337 N 
ATOM     26  H           0       2.558  -1.288   0.164  0.00  0.00     0.164 HD
ATOM     27  O           0       1.093   1.346   0.837  0.00  0.00    -0.239 OA
BRANCH  25  28
ATOM     28  C           0       3.632   0.519   0.465  0.00  0.00     0.125 C 
BRANCH  28  29
ATOM     29  C           0       4.892  -0.305   0.193  0.00  0.00     0.020 C 
BRANCH  29  30
ATOM     30  C           0       6.123   0.599   0.290  0.00  0.00     0.002 C 
BRANCH  30  31
ATOM     31  C           0       7.383  -0.225   0.018  0.00  0.00     0.010 C 
BRANCH  31  32
ATOM     32  C           0       8.614   0.678   0.115  0.00  0.00     0.113 C 
BRANCH  32  33
ATOM     33  C           0       9.856  -0.133  -0.153  0.00  0.00     0.172 C 
ATOM     34  O           0       9.764  -1.324  -0.399  0.00  0.00    -0.648 OA
ATOM     35  O           0      10.951   0.401  -0.124  0.00  0.00    -0.648 OA
ENDBRANCH  32  33
ENDBRANCH  31  32
ENDBRANCH  30  31
ENDBRANCH  29  30
ENDBRANCH  28  29
ENDBRANCH  25  28
ENDBRANCH  23  24
ENDBRANCH  22  23
ENDBRANCH   6  22
BRANCH  18  36
ATOM     36  O           0      -5.599   1.961   0.920  0.00  0.00    -0.362 OA
ATOM     37  H           0      -5.610   2.917   1.067  0.00  0.00     0.213 HD
ENDBRANCH  18  36
BRANCH  18  38
ATOM     38  O           0      -3.258   2.029   1.084  0.00  0.00    -0.362 OA
ATOM     39  H           0      -3.322   2.983   1.227  0.00  0.00     0.213 HD
ENDBRANCH  18  38
TORSDOF 11
