REMARK  7 active torsions:
REMARK  status: ('A' for Active; 'I' for Inactive)
REMARK    1  A    between atoms: O_1  and  C_2 
REMARK    2  A    between atoms: C_2  and  O_3 
REMARK    3  A    between atoms: C_9  and  C_10 
REMARK    4  A    between atoms: C_10  and  O_11 
REMARK    5  A    between atoms: O_11  and  C_12 
REMARK       I    between atoms: C_12  and  N_13 
REMARK    6  A    between atoms: C_26  and  O_27 
REMARK    7  A    between atoms: C_26  and  O_28 
ROOT
ATOM      1  C           0     -14.925  -0.564  -0.461  0.00  0.00     0.331 C 
ENDROOT
BRANCH   1   2
ATOM      2  O           0     -14.504  -1.820   0.076  0.00  0.00    -0.377 OA
ATOM      3  H           0     -13.675  -2.049  -0.366  0.00  0.00     0.212 HD
ENDBRANCH   1   2
BRANCH   1   4
ATOM      4  O           0     -16.151  -0.169   0.157  0.00  0.00    -0.377 OA
ATOM      5  H           0     -16.399   0.681  -0.232  0.00  0.00     0.212 HD
ENDBRANCH   1   4
TORSDOF 7
