REMARK  21 active torsions:
REMARK  status: ('A' for Active; 'I' for Inactive)
REMARK    1  A    between atoms: C_6  and  C_7 
REMARK    2  A    between atoms: C_7  and  O_8 
REMARK    3  A    between atoms: O_8  and  C_9 
REMARK       I    between atoms: C_9  and  N_10 
REMARK    4  A    between atoms: N_10  and  C_11 
REMARK    5  A    between atoms: C_11  and  C_12 
REMARK    6  A    between atoms: C_12  and  C_13 
REMARK    7  A    between atoms: C_13  and  C_14 
REMARK    8  A    between atoms: C_14  and  C_15 
REMARK    9  A    between atoms: C_15  and  C_16 
REMARK   10  A    between atoms: C_16  and  N_17 
REMARK       I    between atoms: N_17  and  C_18 
REMARK   11  A    between atoms: C_18  and  C_19 
REMARK   12  A    between atoms: C_19  and  C_20 
REMARK   13  A    between atoms: C_20  and  C_21 
REMARK   14  A    between atoms: C_21  and  C_22 
REMARK   15  A    between atoms: C_22  and  C_23 
REMARK   16  A    between atoms: C_23  and  N_24 
REMARK   17  A    between atoms: C_25  and  C_26 
REMARK   18  A    between atoms: C_27  and  C_28 
REMARK   19  A    between atoms: C_29  and  C_30 
REMARK   20  A    between atoms: C_65  and  O_66 
REMARK   21  A    between atoms: C_65  and  O_67 
ROOT
ATOM      1  C           0       1.674  -1.930  -0.056  0.00  0.00     0.122 C 
ENDROOT
BRANCH   1   2
ATOM      2  C           0       2.881  -1.446  -0.862  0.00  0.00     0.020 C 
BRANCH   2   3
ATOM      3  C           0       4.141  -1.537   0.001  0.00  0.00     0.002 C 
BRANCH   3   4
ATOM      4  C           0       5.348  -1.053  -0.805  0.00  0.00     0.002 C 
BRANCH   4   5
ATOM      5  C           0       6.607  -1.144   0.059  0.00  0.00     0.020 C 
BRANCH   5   6
ATOM      6  C           0       7.815  -0.660  -0.748  0.00  0.00     0.125 C 
BRANCH   6   7
ATOM      7  N           0       9.021  -0.747   0.079  0.00  0.00    -0.337 N 
ATOM      8  C           0      10.212  -0.371  -0.426  0.00  0.00     0.360 C 
ATOM      9  O           0      10.286   0.039  -1.567  0.00  0.00    -0.239 OA
ATOM     10  H           0       8.962  -1.075   0.990  0.00  0.00     0.164 HD
BRANCH   8  11
ATOM     11  O           0      11.321  -0.451   0.334  0.00  0.00    -0.302 OA
BRANCH  11  12
ATOM     12  C           0      12.605  -0.046  -0.210  0.00  0.00     0.208 C 
BRANCH  12  13
ATOM     13  C           0      13.691  -0.235   0.852  0.00  0.00     0.151 C 
ATOM     14  N           0      13.429   0.677   1.962  0.00  0.00    -0.218 N 
ATOM     15  C           0      13.602   2.034   1.750  0.00  0.00     0.672 C 
ATOM     16  H           0      13.141   0.341   2.825  0.00  0.00     0.178 HD
ATOM     17  N           0      12.926   2.931   2.412  0.00  0.00    -0.235 N 
ATOM     18  N           0      14.526   2.373   0.797  0.00  0.00    -0.183 N 
ATOM     19  H           0      12.277   2.656   3.078  0.00  0.00     0.174 HD
ATOM     20  H           0      13.076   3.874   2.242  0.00  0.00     0.174 HD
ATOM     21  C           0      15.433   1.464   0.095  0.00  0.00     0.217 C 
ATOM     22  C           0      14.781   3.704   0.217  0.00  0.00     0.150 C 
ATOM     23  C           0      15.045  -0.001   0.210  0.00  0.00     0.180 C 
ATOM     24  C           0      15.441   1.944  -1.367  0.00  0.00     0.209 C 
ATOM     25  N           0      16.793   1.542   0.654  0.00  0.00    -0.191 N 
ATOM     26  N           0      16.097  -0.580   1.072  0.00  0.00    -0.216 N 
ATOM     27  C           0      17.164   0.285   1.062  0.00  0.00     0.670 C 
ATOM     28  H           0      16.044  -1.418   1.558  0.00  0.00     0.178 HD
ATOM     29  N           0      18.379  -0.047   1.399  0.00  0.00    -0.235 N 
ATOM     30  H           0      18.574  -0.955   1.679  0.00  0.00     0.174 HD
ATOM     31  H           0      19.088   0.615   1.369  0.00  0.00     0.174 HD
ATOM     32  C           0      15.006   3.429  -1.289  0.00  0.00     0.093 C 
ATOM     33  H           0      17.335   2.343   0.719  0.00  0.00     0.180 HD
BRANCH  24  34
ATOM     34  O           0      16.752   1.837  -1.925  0.00  0.00    -0.362 OA
ATOM     35  H           0      16.706   2.201  -2.819  0.00  0.00     0.213 HD
ENDBRANCH  24  34
BRANCH  24  36
ATOM     36  O           0      14.506   1.190  -2.141  0.00  0.00    -0.362 OA
ATOM     37  H           0      14.510   1.569  -3.031  0.00  0.00     0.213 HD
ENDBRANCH  24  36
ENDBRANCH  12  13
ENDBRANCH  11  12
ENDBRANCH   8  11
ENDBRANCH   6   7
ENDBRANCH   5   6
ENDBRANCH   4   5
ENDBRANCH   3   4
ENDBRANCH   2   3
ENDBRANCH   1   2
BRANCH   1  38
ATOM     38  N           0       0.468  -1.843  -0.883  0.00  0.00    -0.361 N 
ATOM     39  C           0      -0.724  -2.219  -0.378  0.00  0.00     0.217 C 
ATOM     40  O           0      -0.798  -2.629   0.761  0.00  0.00    -0.274 OA
ATOM     41  H           0       0.527  -1.515  -1.794  0.00  0.00     0.162 HD
BRANCH  39  42
ATOM     42  C           0      -1.965  -2.130  -1.229  0.00  0.00     0.103 C 
BRANCH  42  43
ATOM     43  C           0      -3.172  -2.613  -0.423  0.00  0.00     0.009 C 
BRANCH  43  44
ATOM     44  C           0      -4.431  -2.522  -1.286  0.00  0.00     0.002 C 
BRANCH  44  45
ATOM     45  C           0      -5.638  -3.006  -0.480  0.00  0.00     0.020 C 
BRANCH  45  46
ATOM     46  C           0      -6.898  -2.915  -1.344  0.00  0.00     0.129 C 
BRANCH  46  47
ATOM     47  N           0      -8.054  -3.378  -0.572  0.00  0.00    -0.349 N 
ATOM     48  C           0      -8.188  -4.657  -0.129  0.00  0.00     0.042 A 
ATOM     49  C           0      -9.387  -4.800   0.579  0.00  0.00    -0.017 A 
ATOM     50  C           0      -7.351  -5.774  -0.266  0.00  0.00     0.030 A 
ATOM     51  C           0     -10.042  -3.438   0.541  0.00  0.00     0.024 A 
ATOM     52  C           0      -9.742  -6.007   1.128  0.00  0.00     0.010 A 
ATOM     53  C           0      -9.055  -2.601  -0.248  0.00  0.00     0.024 A 
ATOM     54  C           0     -10.213  -2.881   1.956  0.00  0.00     0.027 C 
ATOM     55  C           0     -11.391  -3.504  -0.179  0.00  0.00     0.027 C 
ATOM     56  C           0      -8.904  -7.102   0.990  0.00  0.00     0.001 A 
ATOM     57  C           0      -7.714  -6.980   0.293  0.00  0.00     0.002 A 
BRANCH  53  58
ATOM     58  C           0      -9.191  -1.243  -0.571  0.00  0.00     0.026 C 
ATOM     59  C           0     -10.311  -0.560  -0.193  0.00  0.00     0.002 C 
BRANCH  59  60
ATOM     60  C           0     -10.470   0.784  -0.562  0.00  0.00     0.000 C 
ATOM     61  C           0     -11.589   1.466  -0.185  0.00  0.00     0.002 C 
BRANCH  61  62
ATOM     62  C           0     -11.749   2.814  -0.555  0.00  0.00     0.026 C 
ATOM     63  C           0     -12.886   3.474  -0.234  0.00  0.00     0.024 A 
ATOM     64  N           0     -13.958   2.967   0.449  0.00  0.00    -0.353 N 
ATOM     65  C           0     -13.220   4.912  -0.567  0.00  0.00     0.024 A 
ATOM     66  C           0     -14.964   3.916   0.613  0.00  0.00     0.041 A 
ATOM     67  C           0     -14.037   1.592   0.949  0.00  0.00     0.156 C 
ATOM     68  C           0     -14.596   5.120   0.023  0.00  0.00    -0.017 A 
ATOM     69  C           0     -16.205   3.824   1.241  0.00  0.00     0.030 A 
ATOM     70  C           0     -15.441   6.207   0.056  0.00  0.00     0.010 A 
ATOM     71  C           0     -16.671   6.107   0.682  0.00  0.00     0.001 A 
ATOM     72  C           0     -17.049   4.915   1.272  0.00  0.00     0.002 A 
ATOM     73  C           0     -12.210   5.860   0.083  0.00  0.00     0.027 C 
ATOM     74  C           0     -13.248   5.118  -2.083  0.00  0.00     0.027 C 
ENDBRANCH  61  62
ENDBRANCH  59  60
ENDBRANCH  53  58
ENDBRANCH  46  47
ENDBRANCH  45  46
ENDBRANCH  44  45
ENDBRANCH  43  44
ENDBRANCH  42  43
ENDBRANCH  39  42
ENDBRANCH   1  38
TORSDOF 21
