REMARK  26 active torsions:
REMARK  status: ('A' for Active; 'I' for Inactive)
REMARK    1  A    between atoms: C_6  and  C_7 
REMARK    2  A    between atoms: C_7  and  O_8 
REMARK    3  A    between atoms: O_8  and  C_9 
REMARK       I    between atoms: C_9  and  N_10 
REMARK    4  A    between atoms: N_10  and  C_11 
REMARK    5  A    between atoms: C_11  and  C_12 
REMARK    6  A    between atoms: C_12  and  N_13 
REMARK       I    between atoms: N_13  and  C_14 
REMARK    7  A    between atoms: C_14  and  C_15 
REMARK    8  A    between atoms: C_15  and  C_16 
REMARK    9  A    between atoms: C_16  and  N_17 
REMARK   10  A    between atoms: C_20  and  C_21 
REMARK   11  A    between atoms: C_21  and  C_22 
REMARK   12  A    between atoms: C_22  and  C_23 
REMARK   13  A    between atoms: C_23  and  C_24 
REMARK   14  A    between atoms: C_24  and  C_25 
REMARK   15  A    between atoms: C_25  and  C_26 
REMARK   16  A    between atoms: C_26  and  C_27 
REMARK   17  A    between atoms: C_27  and  C_28 
REMARK       I    between atoms: C_28  and  N_29 
REMARK   18  A    between atoms: N_29  and  C_30 
REMARK   19  A    between atoms: C_30  and  C_31 
REMARK   20  A    between atoms: C_31  and  N_32 
REMARK       I    between atoms: N_32  and  C_33 
REMARK   21  A    between atoms: C_33  and  C_34 
REMARK   22  A    between atoms: C_43  and  N_44 
REMARK   23  A    between atoms: N_44  and  C_45 
REMARK   24  A    between atoms: N_44  and  C_47 
REMARK   25  A    between atoms: C_69  and  O_70 
REMARK   26  A    between atoms: C_69  and  O_71 
ROOT
ATOM      1  N           0      -3.590   5.672   0.269  0.00  0.00    -0.288 N 
ATOM      2  C           0      -3.740   6.993   0.117  0.00  0.00     0.227 A 
ATOM      3  C           0      -2.592   7.533  -0.709  0.00  0.00     0.117 A 
ATOM      4  C           0      -1.745   6.280  -1.011  0.00  0.00     0.087 A 
ATOM      5  C           0      -2.500   5.166  -0.320  0.00  0.00     0.231 A 
ATOM      6  O           0      -2.172   3.999  -0.307  0.00  0.00    -0.273 OA
ATOM      7  O           0      -4.650   7.654   0.570  0.00  0.00    -0.273 OA
ENDROOT
BRANCH   1   8
ATOM      8  C           0      -4.539   4.848   1.022  0.00  0.00     0.144 C 
BRANCH   8   9
ATOM      9  C           0      -5.630   4.336   0.080  0.00  0.00     0.123 C 
BRANCH   9  10
ATOM     10  C           0      -6.606   3.489   0.855  0.00  0.00     0.219 C 
ATOM     11  N           0      -7.659   2.928   0.227  0.00  0.00    -0.359 N 
ATOM     12  H           0      -7.788   3.070  -0.724  0.00  0.00     0.162 HD
ATOM     13  O           0      -6.445   3.311   2.044  0.00  0.00    -0.274 OA
BRANCH  11  14
ATOM     14  C           0      -8.607   2.104   0.980  0.00  0.00     0.142 C 
BRANCH  14  15
ATOM     15  C           0      -9.699   1.592   0.038  0.00  0.00     0.144 C 
BRANCH  15  16
ATOM     16  N           0     -10.647   0.769   0.791  0.00  0.00    -0.335 N 
ATOM     17  C           0     -11.700   0.208   0.163  0.00  0.00     0.360 C 
ATOM     18  O           0     -11.862   0.385  -1.028  0.00  0.00    -0.239 OA
ATOM     19  H           0     -10.518   0.627   1.742  0.00  0.00     0.164 HD
BRANCH  17  20
ATOM     20  O           0     -12.572  -0.549   0.855  0.00  0.00    -0.302 OA
BRANCH  20  21
ATOM     21  C           0     -13.705  -1.154   0.178  0.00  0.00     0.208 C 
BRANCH  21  22
ATOM     22  C           0     -14.532  -1.956   1.185  0.00  0.00     0.151 C 
ATOM     23  N           0     -13.726  -3.071   1.675  0.00  0.00    -0.218 N 
ATOM     24  C           0     -13.436  -4.104   0.801  0.00  0.00     0.672 C 
ATOM     25  H           0     -13.403  -3.088   2.589  0.00  0.00     0.178 HD
ATOM     26  N           0     -12.356  -4.825   0.913  0.00  0.00    -0.235 N 
ATOM     27  N           0     -14.354  -4.316  -0.194  0.00  0.00    -0.183 N 
ATOM     28  H           0     -11.725  -4.645   1.627  0.00  0.00     0.174 HD
ATOM     29  H           0     -12.186  -5.545   0.285  0.00  0.00     0.174 HD
ATOM     30  C           0     -15.657  -3.664  -0.336  0.00  0.00     0.217 C 
ATOM     31  C           0     -14.226  -5.191  -1.373  0.00  0.00     0.150 C 
ATOM     32  C           0     -15.812  -2.411   0.512  0.00  0.00     0.180 C 
ATOM     33  C           0     -15.802  -3.363  -1.837  0.00  0.00     0.209 C 
ATOM     34  N           0     -16.743  -4.556   0.103  0.00  0.00    -0.191 N 
ATOM     35  N           0     -16.793  -2.803   1.547  0.00  0.00    -0.216 N 
ATOM     36  C           0     -17.448  -3.922   1.095  0.00  0.00     0.670 C 
ATOM     37  H           0     -16.945  -2.352   2.392  0.00  0.00     0.178 HD
ATOM     38  N           0     -18.598  -4.331   1.552  0.00  0.00    -0.235 N 
ATOM     39  H           0     -19.045  -3.836   2.256  0.00  0.00     0.174 HD
ATOM     40  H           0     -19.008  -5.132   1.187  0.00  0.00     0.174 HD
ATOM     41  C           0     -14.852  -4.374  -2.528  0.00  0.00     0.093 C 
ATOM     42  H           0     -16.930  -5.440  -0.251  0.00  0.00     0.180 HD
BRANCH  33  43
ATOM     43  O           0     -17.149  -3.573  -2.265  0.00  0.00    -0.362 OA
ATOM     44  H           0     -17.166  -3.423  -3.220  0.00  0.00     0.213 HD
ENDBRANCH  33  43
BRANCH  33  45
ATOM     45  O           0     -15.393  -2.023  -2.117  0.00  0.00    -0.362 OA
ATOM     46  H           0     -15.450  -1.908  -3.076  0.00  0.00     0.213 HD
ENDBRANCH  33  45
ENDBRANCH  21  22
ENDBRANCH  20  21
ENDBRANCH  17  20
ENDBRANCH  15  16
ENDBRANCH  14  15
ENDBRANCH  11  14
ENDBRANCH   9  10
ENDBRANCH   8   9
ENDBRANCH   1   8
BRANCH   4  47
ATOM     47  C           0      -0.342   6.423  -0.418  0.00  0.00     0.014 C 
BRANCH  47  48
ATOM     48  C           0       0.514   5.226  -0.838  0.00  0.00     0.001 C 
BRANCH  48  49
ATOM     49  C           0       1.917   5.369  -0.244  0.00  0.00     0.000 C 
BRANCH  49  50
ATOM     50  C           0       2.772   4.172  -0.664  0.00  0.00     0.000 C 
BRANCH  50  51
ATOM     51  C           0       4.175   4.315  -0.071  0.00  0.00     0.000 C 
BRANCH  51  52
ATOM     52  C           0       5.031   3.118  -0.491  0.00  0.00     0.009 C 
BRANCH  52  53
ATOM     53  C           0       6.434   3.261   0.103  0.00  0.00     0.103 C 
BRANCH  53  54
ATOM     54  C           0       7.277   2.082  -0.311  0.00  0.00     0.217 C 
ATOM     55  N           0       8.558   1.993   0.097  0.00  0.00    -0.360 N 
ATOM     56  H           0       8.938   2.688   0.658  0.00  0.00     0.162 HD
ATOM     57  O           0       6.802   1.213  -1.012  0.00  0.00    -0.274 OA
BRANCH  55  58
ATOM     58  C           0       9.377   0.847  -0.305  0.00  0.00     0.142 C 
BRANCH  58  59
ATOM     59  C           0      10.780   0.990   0.289  0.00  0.00     0.142 C 
BRANCH  59  60
ATOM     60  N           0      11.600  -0.156  -0.113  0.00  0.00    -0.355 N 
ATOM     61  C           0      12.881  -0.245   0.295  0.00  0.00     0.257 C 
ATOM     62  O           0      13.376   0.657   0.943  0.00  0.00    -0.267 OA
ATOM     63  H           0      11.220  -0.851  -0.674  0.00  0.00     0.162 HD
BRANCH  61  64
ATOM     64  C           0      13.683  -1.437  -0.045  0.00  0.00     0.104 C 
ATOM     65  C           0      13.120  -2.481  -0.931  0.00  0.00     0.298 C 
ATOM     66  O           0      13.968  -3.470  -1.321  0.00  0.00    -0.316 OA
ATOM     67  O           0      11.962  -2.451  -1.299  0.00  0.00    -0.259 OA
ATOM     68  C           0      14.909  -3.944  -0.311  0.00  0.00     0.200 C 
ATOM     69  C           0      15.794  -2.765   0.125  0.00  0.00     0.036 A 
ATOM     70  C           0      14.921  -1.577   0.454  0.00  0.00     0.016 C 
ATOM     71  C           0      16.489  -3.139   1.279  0.00  0.00    -0.005 A 
ATOM     72  C           0      16.630  -2.423  -0.940  0.00  0.00    -0.005 A 
ATOM     73  C           0      17.819  -3.178   1.390  0.00  0.00     0.026 A 
ATOM     74  C           0      18.628  -2.823   0.287  0.00  0.00     0.029 A 
ATOM     75  C           0      17.965  -2.439  -0.900  0.00  0.00     0.026 A 
BRANCH  74  76
ATOM     76  N           0      20.015  -2.852   0.366  0.00  0.00    -0.382 N 
BRANCH  76  77
ATOM     77  C           0      20.823  -2.451  -0.788  0.00  0.00     0.118 C 
ATOM     78  C           0      21.105  -0.949  -0.717  0.00  0.00     0.026 C 
ENDBRANCH  76  77
BRANCH  76  79
ATOM     79  C           0      20.669  -3.282   1.604  0.00  0.00     0.118 C 
ATOM     80  C           0      21.017  -4.769   1.507  0.00  0.00     0.026 C 
ENDBRANCH  76  79
ENDBRANCH  74  76
ENDBRANCH  61  64
ENDBRANCH  59  60
ENDBRANCH  58  59
ENDBRANCH  55  58
ENDBRANCH  53  54
ENDBRANCH  52  53
ENDBRANCH  51  52
ENDBRANCH  50  51
ENDBRANCH  49  50
ENDBRANCH  48  49
ENDBRANCH  47  48
ENDBRANCH   4  47
TORSDOF 26
