REMARK  5 active torsions:
REMARK  status: ('A' for Active; 'I' for Inactive)
REMARK    1  A    between atoms: C_6  and  C_7 
REMARK    2  A    between atoms: C_7  and  O_8 
REMARK    3  A    between atoms: O_8  and  C_9 
REMARK       I    between atoms: C_9  and  N_10 
REMARK    4  A    between atoms: C_19  and  O_20 
REMARK    5  A    between atoms: C_24  and  O_25 
ROOT
ATOM      1  N           0       0.403   3.424   0.888  0.00  0.00    -0.235 N 
ATOM      2  H           0      -0.418   3.893   1.103  0.00  0.00     0.174 HD
ATOM      3  H           0       1.260   3.830   1.091  0.00  0.00     0.174 HD
ATOM      4  C           0       0.356   2.247   0.331  0.00  0.00     0.672 C 
ATOM      5  N           0      -0.844   1.627   0.029  0.00  0.00    -0.218 N 
ATOM      6  C           0      -0.888   0.167   0.028  0.00  0.00     0.152 C 
ATOM      7  C           0       0.236  -0.450  -0.772  0.00  0.00     0.185 C 
ATOM      8  N           0       0.363  -1.881  -0.483  0.00  0.00    -0.215 N 
ATOM      9  C           0       1.047  -2.249   0.667  0.00  0.00     0.670 C 
ATOM     10  N           0       2.046  -1.374   1.067  0.00  0.00    -0.189 N 
ATOM     11  N           0       0.769  -3.339   1.324  0.00  0.00    -0.235 N 
ATOM     12  H           0       0.063  -3.927   1.014  0.00  0.00     0.174 HD
ATOM     13  H           0       1.269  -3.564   2.125  0.00  0.00     0.174 HD
ATOM     14  C           0       1.560   0.253  -0.680  0.00  0.00     0.224 C 
ATOM     15  N           0       1.490   1.552   0.005  0.00  0.00    -0.178 N 
ATOM     16  C           0       2.881   1.886   0.357  0.00  0.00     0.150 C 
ATOM     17  C           0       3.509   0.534   0.768  0.00  0.00     0.087 C 
ATOM     18  C           0       2.653  -0.533   0.024  0.00  0.00     0.202 C 
ATOM     19  H           0      -1.636   2.149  -0.177  0.00  0.00     0.178 HD
ATOM     20  H           0      -0.018  -2.548  -1.075  0.00  0.00     0.178 HD
ATOM     21  H           0       2.332  -1.319   1.993  0.00  0.00     0.181 HD
ENDROOT
BRANCH   6  22
ATOM     22  C           0      -2.222  -0.287  -0.569  0.00  0.00     0.208 C 
BRANCH  22  23
ATOM     23  O           0      -3.308   0.137   0.297  0.00  0.00    -0.302 OA
BRANCH  23  24
ATOM     24  C           0      -4.582  -0.154  -0.030  0.00  0.00     0.358 C 
ATOM     25  N           0      -5.590   0.239   0.774  0.00  0.00    -0.346 N 
ATOM     26  H           0      -5.398   0.732   1.587  0.00  0.00     0.161 HD
ATOM     27  H           0      -6.507   0.030   0.539  0.00  0.00     0.161 HD
ATOM     28  O           0      -4.822  -0.770  -1.049  0.00  0.00    -0.239 OA
ENDBRANCH  23  24
ENDBRANCH  22  23
ENDBRANCH   6  22
BRANCH  14  29
ATOM     29  O           0       2.024   0.511  -2.007  0.00  0.00    -0.364 OA
ATOM     30  H           0       2.874   0.963  -1.923  0.00  0.00     0.212 HD
ENDBRANCH  14  29
BRANCH  18  31
ATOM     31  O           0       3.457  -1.311  -0.865  0.00  0.00    -0.366 OA
ATOM     32  H           0       4.117  -1.764  -0.322  0.00  0.00     0.212 HD
ENDBRANCH  18  31
TORSDOF 5
