REMARK  15 active torsions:
REMARK  status: ('A' for Active; 'I' for Inactive)
REMARK    1  A    between atoms: C_6  and  C_7 
REMARK    2  A    between atoms: C_7  and  O_8 
REMARK    3  A    between atoms: O_8  and  C_9 
REMARK       I    between atoms: C_9  and  N_10 
REMARK    4  A    between atoms: N_10  and  C_11 
REMARK    5  A    between atoms: C_11  and  C_12 
REMARK    6  A    between atoms: C_12  and  C_13 
REMARK    7  A    between atoms: C_13  and  C_14 
REMARK    8  A    between atoms: C_14  and  C_15 
REMARK    9  A    between atoms: C_15  and  C_16 
REMARK   10  A    between atoms: C_16  and  N_17 
REMARK       I    between atoms: N_17  and  C_18 
REMARK   11  A    between atoms: C_18  and  C_19 
REMARK   12  A    between atoms: C_19  and  C_20 
REMARK   13  A    between atoms: C_20  and  C_21 
REMARK   14  A    between atoms: C_38  and  O_39 
REMARK   15  A    between atoms: C_38  and  O_40 
ROOT
ATOM      1  N           0      -5.209  -0.825  -3.051  0.00  0.00    -0.235 N 
ATOM      2  H           0      -4.564  -1.506  -3.297  0.00  0.00     0.174 HD
ATOM      3  H           0      -5.530  -0.197  -3.716  0.00  0.00     0.174 HD
ATOM      4  C           0      -5.649  -0.758  -1.825  0.00  0.00     0.672 C 
ATOM      5  N           0      -5.226  -1.634  -0.842  0.00  0.00    -0.218 N 
ATOM      6  C           0      -5.229  -1.173   0.544  0.00  0.00     0.151 C 
ATOM      7  C           0      -6.557  -0.568   0.956  0.00  0.00     0.180 C 
ATOM      8  N           0      -7.529  -1.653   1.205  0.00  0.00    -0.216 N 
ATOM      9  C           0      -8.742  -1.245   0.707  0.00  0.00     0.670 C 
ATOM     10  N           0      -9.888  -1.761   1.055  0.00  0.00    -0.235 N 
ATOM     11  H           0      -9.918  -2.481   1.705  0.00  0.00     0.174 HD
ATOM     12  H           0     -10.710  -1.425   0.665  0.00  0.00     0.174 HD
ATOM     13  C           0      -7.218   0.274  -0.124  0.00  0.00     0.217 C 
ATOM     14  N           0      -8.600  -0.226  -0.202  0.00  0.00    -0.191 N 
ATOM     15  N           0      -6.556   0.189  -1.427  0.00  0.00    -0.183 N 
ATOM     16  C           0      -7.030   1.364  -2.182  0.00  0.00     0.150 C 
ATOM     17  C           0      -7.095   2.495  -1.129  0.00  0.00     0.093 C 
ATOM     18  C           0      -7.222   1.770   0.235  0.00  0.00     0.209 C 
ATOM     19  H           0      -4.936  -2.532  -1.067  0.00  0.00     0.178 HD
ATOM     20  H           0      -7.344  -2.500   1.640  0.00  0.00     0.178 HD
ATOM     21  H           0      -9.293   0.109  -0.792  0.00  0.00     0.180 HD
ENDROOT
BRANCH   6  22
ATOM     22  C           0      -4.133  -0.119   0.716  0.00  0.00     0.208 C 
BRANCH  22  23
ATOM     23  O           0      -2.834  -0.733   0.510  0.00  0.00    -0.302 OA
BRANCH  23  24
ATOM     24  C           0      -1.715   0.008   0.612  0.00  0.00     0.360 C 
ATOM     25  N           0      -0.509  -0.562   0.422  0.00  0.00    -0.337 N 
ATOM     26  H           0      -0.447  -1.507   0.211  0.00  0.00     0.164 HD
ATOM     27  O           0      -1.792   1.192   0.876  0.00  0.00    -0.239 OA
BRANCH  25  28
ATOM     28  C           0       0.709   0.245   0.533  0.00  0.00     0.125 C 
BRANCH  28  29
ATOM     29  C           0       1.931  -0.638   0.273  0.00  0.00     0.020 C 
BRANCH  29  30
ATOM     30  C           0       3.203   0.205   0.389  0.00  0.00     0.002 C 
BRANCH  30  31
ATOM     31  C           0       4.425  -0.678   0.129  0.00  0.00     0.002 C 
BRANCH  31  32
ATOM     32  C           0       5.697   0.165   0.245  0.00  0.00     0.020 C 
BRANCH  32  33
ATOM     33  C           0       6.919  -0.718  -0.015  0.00  0.00     0.122 C 
BRANCH  33  34
ATOM     34  N           0       8.137   0.089   0.096  0.00  0.00    -0.361 N 
ATOM     35  C           0       9.343  -0.482  -0.095  0.00  0.00     0.217 C 
ATOM     36  O           0       9.421  -1.663  -0.358  0.00  0.00    -0.274 OA
ATOM     37  H           0       8.075   1.034   0.306  0.00  0.00     0.162 HD
BRANCH  35  38
ATOM     38  C           0      10.596   0.348   0.020  0.00  0.00     0.107 C 
BRANCH  38  39
ATOM     39  C           0      11.818  -0.534  -0.240  0.00  0.00     0.070 C 
BRANCH  39  40
ATOM     40  C           0      13.090   0.308  -0.124  0.00  0.00     0.183 A 
ATOM     41  N           0      13.045   1.540   0.668  0.00  0.00    -0.159 NA
ATOM     42  N           0      13.047   1.706  -0.561  0.00  0.00    -0.159 NA
ATOM     43  C           0      14.415  -0.450  -0.226  0.00  0.00     0.071 C 
ENDBRANCH  39  40
ENDBRANCH  38  39
ENDBRANCH  35  38
ENDBRANCH  33  34
ENDBRANCH  32  33
ENDBRANCH  31  32
ENDBRANCH  30  31
ENDBRANCH  29  30
ENDBRANCH  28  29
ENDBRANCH  25  28
ENDBRANCH  23  24
ENDBRANCH  22  23
ENDBRANCH   6  22
BRANCH  18  44
ATOM     44  O           0      -8.447   2.129   0.878  0.00  0.00    -0.362 OA
ATOM     45  H           0      -8.414   3.084   1.029  0.00  0.00     0.213 HD
ENDBRANCH  18  44
BRANCH  18  46
ATOM     46  O           0      -6.108   2.083   1.072  0.00  0.00    -0.362 OA
ATOM     47  H           0      -6.128   3.039   1.218  0.00  0.00     0.213 HD
ENDBRANCH  18  46
TORSDOF 15
