REMARK  5 active torsions:
REMARK  status: ('A' for Active; 'I' for Inactive)
REMARK    1  A    between atoms: C_14  and  O_15 
REMARK    2  A    between atoms: C_17  and  O_18 
REMARK    3  A    between atoms: C_17  and  C_19 
REMARK    4  A    between atoms: C_19  and  O_20 
REMARK    5  A    between atoms: C_22  and  O_23 
ROOT
ATOM      1  N           0      -4.427  -0.690   0.226  0.00  0.00    -0.235 N 
ATOM      2  H           0      -5.152  -0.283  -0.274  0.00  0.00     0.174 HD
ATOM      3  H           0      -4.607  -1.128   1.072  0.00  0.00     0.174 HD
ATOM      4  C           0      -3.211  -0.652  -0.243  0.00  0.00     0.670 C 
ATOM      5  N           0      -2.911  -0.038  -1.457  0.00  0.00    -0.200 N 
ATOM      6  C           0      -1.631   0.730  -1.453  0.00  0.00     0.248 C 
ATOM      7  C           0      -0.543  -0.357  -1.182  0.00  0.00     0.102 C 
ATOM      8  C           0      -0.833  -0.592   0.322  0.00  0.00     0.119 C 
ATOM      9  C           0      -0.902   0.882   0.786  0.00  0.00     0.249 C 
ATOM     10  O           0      -1.696   1.521  -0.243  0.00  0.00    -0.350 OA
ATOM     11  N           0      -2.144  -1.218   0.446  0.00  0.00    -0.211 N 
ATOM     12  C           0       0.825   0.304  -1.356  0.00  0.00     0.177 C 
ATOM     13  O           0       0.842   1.598  -0.754  0.00  0.00    -0.322 OA
ATOM     14  C           0       0.519   1.454   0.669  0.00  0.00     0.311 C 
ATOM     15  O           0       1.469   0.698   1.385  0.00  0.00    -0.319 OA
ATOM     16  C           0       1.911  -0.540  -0.684  0.00  0.00     0.134 C 
ATOM     17  C           0       1.576  -0.620   0.859  0.00  0.00     0.198 C 
ATOM     18  C           0       0.266  -1.348   1.019  0.00  0.00     0.182 C 
ATOM     19  H           0      -3.484  -0.104  -2.237  0.00  0.00     0.180 HD
ATOM     20  H           0      -2.269  -2.012   0.989  0.00  0.00     0.178 HD
ENDROOT
BRANCH  16  21
ATOM     21  O           0       1.893  -1.865  -1.221  0.00  0.00    -0.382 OA
ATOM     22  H           0       2.592  -2.359  -0.769  0.00  0.00     0.210 HD
ENDBRANCH  16  21
BRANCH  16  23
ATOM     23  C           0       3.282   0.095  -0.923  0.00  0.00     0.207 C 
BRANCH  23  24
ATOM     24  O           0       4.291  -0.697  -0.294  0.00  0.00    -0.398 OA
ATOM     25  H           0       5.137  -0.263  -0.469  0.00  0.00     0.209 HD
ENDBRANCH  23  24
ENDBRANCH  16  23
BRANCH  18  26
ATOM     26  O           0      -0.047  -1.466   2.408  0.00  0.00    -0.390 OA
ATOM     27  H           0       0.675  -1.964   2.816  0.00  0.00     0.210 HD
ENDBRANCH  18  26
BRANCH  14  28
ATOM     28  O           0       0.519   2.763   1.242  0.00  0.00    -0.341 OA
ATOM     29  H           0       1.406   3.126   1.112  0.00  0.00     0.215 HD
ENDBRANCH  14  28
TORSDOF 5
