REMARK  12 active torsions:
REMARK  status: ('A' for Active; 'I' for Inactive)
REMARK    1  A    between atoms: N_8  and  C_9 
REMARK    2  A    between atoms: C_9  and  O_10 
REMARK    3  A    between atoms: O_10  and  C_11 
REMARK       I    between atoms: C_11  and  N_12 
REMARK    4  A    between atoms: N_12  and  O_13 
REMARK    5  A    between atoms: C_15  and  N_16 
REMARK    6  A    between atoms: C_23  and  O_24 
REMARK    7  A    between atoms: O_24  and  S_25 
REMARK    8  A    between atoms: S_25  and  O_26 
REMARK    9  A    between atoms: C_31  and  C_32 
REMARK   10  A    between atoms: C_32  and  O_33 
REMARK   11  A    between atoms: C_39  and  O_40 
REMARK   12  A    between atoms: C_39  and  O_41 
ROOT
ATOM      1  N           0      -0.437   3.302  -2.550  0.00  0.00    -0.235 N 
ATOM      2  H           0      -0.122   3.620  -3.410  0.00  0.00     0.174 HD
ATOM      3  H           0      -1.168   3.756  -2.102  0.00  0.00     0.174 HD
ATOM      4  C           0       0.119   2.259  -1.997  0.00  0.00     0.672 C 
ATOM      5  N           0       1.172   1.548  -2.581  0.00  0.00    -0.211 N 
ATOM      6  C           0       1.429   0.203  -2.047  0.00  0.00     0.221 C 
ATOM      7  C           0       1.669   0.301  -0.543  0.00  0.00     0.192 A 
ATOM      8  N           0       2.932   1.018  -0.342  0.00  0.00    -0.185 N 
ATOM      9  C           0       2.735   2.134   0.424  0.00  0.00     0.674 A 
ATOM     10  C           0       0.650   1.149   0.189  0.00  0.00     0.221 A 
ATOM     11  N           0       1.422   2.255   0.771  0.00  0.00    -0.191 N 
ATOM     12  N           0      -0.284   1.683  -0.807  0.00  0.00    -0.180 N 
ATOM     13  C           0      -1.648   1.477  -0.326  0.00  0.00     0.190 C 
ATOM     14  C           0      -1.606   0.413   0.775  0.00  0.00     0.161 C 
ATOM     15  C           0      -2.076  -0.995   0.435  0.00  0.00     0.075 C 
ATOM     16  C           0      -1.996  -1.293  -1.062  0.00  0.00     0.129 C 
ATOM     17  C           0      -2.159  -2.799  -1.322  0.00  0.00     0.061 C 
ATOM     18  C           0      -0.763  -3.380  -1.041  0.00  0.00     0.210 C 
ATOM     19  O           0       0.071  -2.247  -0.717  0.00  0.00    -0.274 OA
ATOM     20  N           0      -0.555  -1.147  -1.358  0.00  0.00    -0.219 N 
ATOM     21  C           0      -0.021  -0.201  -2.140  0.00  0.00     0.269 C 
ATOM     22  O           0      -0.735   0.292  -2.995  0.00  0.00    -0.269 OA
ATOM     23  C           0      -0.155   0.398   1.257  0.00  0.00     0.244 C 
ATOM     24  H           0       1.706   1.933  -3.310  0.00  0.00     0.178 HD
ATOM     25  H           0       1.043   2.964   1.317  0.00  0.00     0.180 HD
ENDROOT
BRANCH   8  26
ATOM     26  C           0       4.232   0.594  -0.885  0.00  0.00     0.325 C 
BRANCH  26  27
ATOM     27  O           0       5.024  -0.010   0.171  0.00  0.00    -0.282 OA
BRANCH  27  28
ATOM     28  C           0       4.660  -1.198   0.690  0.00  0.00     0.386 C 
ATOM     29  N           0       5.316  -1.698   1.756  0.00  0.00    -0.213 N 
ATOM     30  H           0       6.051  -1.202   2.149  0.00  0.00     0.199 HD
ATOM     31  O           0       3.739  -1.820   0.197  0.00  0.00    -0.236 OA
BRANCH  29  32
ATOM     32  O           0       4.933  -2.947   2.301  0.00  0.00    -0.285 OA
ATOM     33  H           0       5.523  -3.118   3.049  0.00  0.00     0.244 HD
ENDBRANCH  29  32
ENDBRANCH  27  28
ENDBRANCH  26  27
ENDBRANCH   8  26
BRANCH   9  34
ATOM     34  N           0       3.679   2.971   0.774  0.00  0.00    -0.235 N 
ATOM     35  H           0       4.603   2.779   0.552  0.00  0.00     0.174 HD
ATOM     36  H           0       3.453   3.782   1.255  0.00  0.00     0.174 HD
ENDBRANCH   9  34
BRANCH  23  37
ATOM     37  O           0       0.340  -0.919   1.451  0.00  0.00    -0.360 OA
ATOM     38  H           0      -0.209  -1.326   2.134  0.00  0.00     0.213 HD
ENDBRANCH  23  37
BRANCH  23  39
ATOM     39  O           0      -0.065   1.121   2.497  0.00  0.00    -0.360 OA
ATOM     40  H           0      -0.625   0.657   3.133  0.00  0.00     0.213 HD
ENDBRANCH  23  39
BRANCH  14  41
ATOM     41  O           0      -2.417   0.893   1.862  0.00  0.00    -0.245 OA
BRANCH  41  42
ATOM     42  S           0      -3.833   1.038   1.323  0.00  0.00     0.241 S 
ATOM     43  O           0      -3.792   1.143  -0.144  0.00  0.00    -0.579 OA
ATOM     44  O           0      -4.628  -0.139   1.708  0.00  0.00    -0.579 OA
BRANCH  42  45
ATOM     45  O           0      -4.471   2.292   1.904  0.00  0.00    -0.274 OA
ATOM     46  H           0      -5.364   2.347   1.539  0.00  0.00     0.234 HD
ENDBRANCH  42  45
ENDBRANCH  41  42
ENDBRANCH  14  41
BRANCH  17  47
ATOM     47  C           0      -3.208  -3.425  -0.409  0.00  0.00     0.173 C 
BRANCH  47  48
ATOM     48  O           0      -3.399  -4.793  -0.772  0.00  0.00    -0.400 OA
ATOM     49  H           0      -4.068  -5.151  -0.172  0.00  0.00     0.209 HD
ENDBRANCH  47  48
ENDBRANCH  17  47
TORSDOF 12
