# created with PyMOL 2.3.4
@<TRIPOS>MOLECULE
ligand_out_0001
30 32 1                 
SMALL
USER_CHARGES
@<TRIPOS>ATOM
1	   N	134.852	136.685	143.071	N.3	1	UNK0	-0.235	
2	   N	133.739	134.616	142.951	N.3	1	UNK0	-0.218	
3	   N	134.167	132.077	144.642	N.3	1	UNK0	-0.216	
4	   N	134.901	131.652	146.851	N.3	1	UNK0	-0.235	
5	   N	136.090	133.052	145.361	N.3	1	UNK0	-0.191	
6	   N	135.979	134.701	143.595	N.3	1	UNK0	-0.183	
7	   C	134.860	135.388	143.203	C.3	1	UNK0	0.672	
8	   C	133.934	133.239	142.508	C.3	1	UNK0	0.151	
9	   C	134.879	132.464	143.405	C.3	1	UNK0	0.180	
10	   C	135.044	132.225	145.689	C.3	1	UNK0	0.670	
11	   C	136.065	133.274	143.906	C.3	1	UNK0	0.217	
12	   C	137.353	135.215	143.736	C.3	1	UNK0	0.150	
13	   C	138.245	134.086	143.166	C.3	1	UNK0	0.093	
14	   C	137.389	132.799	143.282	C.3	1	UNK0	0.209	
15	   C	134.503	133.253	141.088	C.2	1	UNK0	0.206	
16	   C	133.446	134.834	139.592	C.2	1	UNK0	0.254	
17	   C	133.738	134.995	138.123	C.3	1	UNK0	0.126	
18	   O	133.456	133.614	140.150	O.2	1	UNK0	-0.320	
19	   O	133.202	135.806	140.269	O.co2	1	UNK0	-0.266	
20	   O	138.032	131.847	144.131	O.2	1	UNK0	-0.362	
21	   O	137.155	132.238	141.989	O.2	1	UNK0	-0.362	
22	   H	134.043	137.140	142.789	 H	1	UNK0	0.174	
23	   H	135.654	137.197	143.261	 H	1	UNK0	0.174	
24	   H	134.137	131.077	147.018	 H	1	UNK0	0.174	
25	   H	135.558	131.798	147.548	 H	1	UNK0	0.174	
26	   H	132.847	134.981	143.067	 H	1	UNK0	0.178	
27	   H	133.248	131.773	144.703	 H	1	UNK0	0.178	
28	   H	136.736	133.424	145.981	 H	1	UNK0	0.180	
29	   H	138.433	132.345	144.856	 H	1	UNK0	0.213	
30	   H	136.610	132.873	141.504	 H	1	UNK0	0.213	
@<TRIPOS>BOND
1 1 7 1
2 1 22 1
3 1 23 1
4 2 8 1
5 2 26 1
6 3 10 1
7 3 27 1
8 4 24 1
9 4 25 1
10 5 28 1
11 6 12 1
12 2 7 1
13 6 7 1
14 8 9 1
15 8 15 1
16 3 9 1
17 9 11 1
18 4 10 1
19 5 10 1
20 5 11 1
21 6 11 1
22 11 14 1
23 12 13 1
24 13 14 1
25 14 20 2
26 14 21 2
27 15 18 2
28 16 17 1
29 16 19 2
30 16 18 2
31 20 29 1
32 21 30 1
@<TRIPOS>SUBSTRUCTURE
1	UNK0	1	GROUP	1 ****	UNK
