MODEL 1
REMARK VINA RESULT:      -7.9      0.000      0.000
REMARK  26 active torsions:
REMARK  status: ('A' for Active; 'I' for Inactive)
REMARK    1  A    between atoms: C_6  and  C_7 
REMARK    2  A    between atoms: C_7  and  O_8 
REMARK    3  A    between atoms: O_8  and  C_9 
REMARK       I    between atoms: C_9  and  N_10 
REMARK    4  A    between atoms: N_10  and  C_11 
REMARK    5  A    between atoms: C_11  and  C_12 
REMARK    6  A    between atoms: C_12  and  N_13 
REMARK       I    between atoms: N_13  and  C_14 
REMARK    7  A    between atoms: C_14  and  C_15 
REMARK    8  A    between atoms: C_15  and  C_16 
REMARK    9  A    between atoms: C_16  and  N_17 
REMARK   10  A    between atoms: C_20  and  C_21 
REMARK   11  A    between atoms: C_21  and  C_22 
REMARK   12  A    between atoms: C_22  and  C_23 
REMARK   13  A    between atoms: C_23  and  C_24 
REMARK   14  A    between atoms: C_24  and  C_25 
REMARK   15  A    between atoms: C_25  and  C_26 
REMARK   16  A    between atoms: C_26  and  C_27 
REMARK   17  A    between atoms: C_27  and  C_28 
REMARK       I    between atoms: C_28  and  N_29 
REMARK   18  A    between atoms: N_29  and  C_30 
REMARK   19  A    between atoms: C_30  and  C_31 
REMARK   20  A    between atoms: C_31  and  N_32 
REMARK       I    between atoms: N_32  and  C_33 
REMARK   21  A    between atoms: C_33  and  C_34 
REMARK   22  A    between atoms: C_43  and  N_44 
REMARK   23  A    between atoms: N_44  and  C_45 
REMARK   24  A    between atoms: N_44  and  C_47 
REMARK   25  A    between atoms: C_69  and  O_70 
REMARK   26  A    between atoms: C_69  and  O_71 
ROOT
ATOM      1  N           0     136.257 130.056 149.204  0.00  0.00    -0.288 N 
ATOM      2  C           0     135.121 130.549 149.710  0.00  0.00     0.227 A 
ATOM      3  C           0     134.314 131.186 148.598  0.00  0.00     0.117 A 
ATOM      4  C           0     135.193 130.971 147.349  0.00  0.00     0.087 A 
ATOM      5  C           0     136.404 130.242 147.887  0.00  0.00     0.231 A 
ATOM      6  O           0     137.354 129.878 147.227  0.00  0.00    -0.273 OA
ATOM      7  O           0     134.789 130.496 150.875  0.00  0.00    -0.273 OA
ENDROOT
BRANCH   1   8
ATOM      8  C           0     137.260 129.374 150.025  0.00  0.00     0.144 C 
BRANCH   8   9
ATOM      9  C           0     138.209 130.407 150.635  0.00  0.00     0.123 C 
BRANCH   9  10
ATOM     10  C           0     139.583 130.241 150.039  0.00  0.00     0.219 C 
ATOM     11  N           0     139.785 130.490 148.729  0.00  0.00    -0.359 N 
ATOM     12  H           0     139.044 130.775 148.171  0.00  0.00     0.162 HD
ATOM     13  O           0     140.509 129.884 150.737  0.00  0.00    -0.274 OA
BRANCH  11  14
ATOM     14  C           0     141.120 130.329 148.150  0.00  0.00     0.142 C 
BRANCH  14  15
ATOM     15  C           0     141.101 130.787 146.690  0.00  0.00     0.144 C 
BRANCH  15  16
ATOM     16  N           0     141.007 132.246 146.636  0.00  0.00    -0.335 N 
ATOM     17  C           0     140.049 132.833 145.891  0.00  0.00     0.360 C 
ATOM     18  O           0     139.263 132.150 145.264  0.00  0.00    -0.239 OA
ATOM     19  H           0     141.634 132.792 147.137  0.00  0.00     0.164 HD
BRANCH  17  20
ATOM     20  O           0     139.961 134.176 145.842  0.00  0.00    -0.302 OA
BRANCH  20  21
ATOM     21  C           0     138.921 134.863 146.584  0.00  0.00     0.208 C 
BRANCH  21  22
ATOM     22  C           0     139.546 135.977 147.427  0.00  0.00     0.151 C 
ATOM     23  N           0     140.517 135.386 148.344  0.00  0.00    -0.218 N 
ATOM     24  C           0     140.044 134.603 149.383  0.00  0.00     0.672 C 
ATOM     25  H           0     141.467 135.537 148.229  0.00  0.00     0.178 HD
ATOM     26  N           0     140.749 133.636 149.899  0.00  0.00    -0.235 N 
ATOM     27  N           0     138.785 134.907 149.830  0.00  0.00    -0.183 N 
ATOM     28  H           0     141.635 133.445 149.555  0.00  0.00     0.174 HD
ATOM     29  H           0     140.388 133.109 150.630  0.00  0.00     0.174 HD
ATOM     30  C           0     137.963 136.047 149.423  0.00  0.00     0.217 C 
ATOM     31  C           0     137.947 134.138 150.768  0.00  0.00     0.150 C 
ATOM     32  C           0     138.440 136.723 148.147  0.00  0.00     0.180 C 
ATOM     33  C           0     136.536 135.491 149.278  0.00  0.00     0.209 C 
ATOM     34  N           0     137.986 137.106 150.445  0.00  0.00    -0.191 N 
ATOM     35  N           0     138.957 138.029 148.610  0.00  0.00    -0.216 N 
ATOM     36  C           0     138.433 138.263 149.858  0.00  0.00     0.670 C 
ATOM     37  H           0     139.557 138.614 148.122  0.00  0.00     0.178 HD
ATOM     38  N           0     138.369 139.439 150.415  0.00  0.00    -0.235 N 
ATOM     39  H           0     138.703 140.219 149.946  0.00  0.00     0.174 HD
ATOM     40  H           0     137.985 139.536 151.302  0.00  0.00     0.174 HD
ATOM     41  C           0     136.523 134.223 150.169  0.00  0.00     0.093 C 
ATOM     42  H           0     137.727 137.004 151.375  0.00  0.00     0.180 HD
BRANCH  33  43
ATOM     43  O           0     135.576 136.440 149.748  0.00  0.00    -0.362 OA
ATOM     44  H           0     135.232 136.098 150.585  0.00  0.00     0.213 HD
ENDBRANCH  33  43
BRANCH  33  45
ATOM     45  O           0     136.272 135.148 147.917  0.00  0.00    -0.362 OA
ATOM     46  H           0     135.310 135.117 147.818  0.00  0.00     0.213 HD
ENDBRANCH  33  45
ENDBRANCH  21  22
ENDBRANCH  20  21
ENDBRANCH  17  20
ENDBRANCH  15  16
ENDBRANCH  14  15
ENDBRANCH  11  14
ENDBRANCH   9  10
ENDBRANCH   8   9
ENDBRANCH   1   8
BRANCH   4  47
ATOM     47  C           0     135.603 132.315 146.743  0.00  0.00     0.014 C 
BRANCH  47  48
ATOM     48  C           0     135.754 132.166 145.227  0.00  0.00     0.001 C 
BRANCH  48  49
ATOM     49  C           0     135.036 130.896 144.765  0.00  0.00     0.000 C 
BRANCH  49  50
ATOM     50  C           0     134.985 130.868 143.237  0.00  0.00     0.000 C 
BRANCH  50  51
ATOM     51  C           0     135.048 132.299 142.698  0.00  0.00     0.000 C 
BRANCH  51  52
ATOM     52  C           0     133.718 132.651 142.029  0.00  0.00     0.009 C 
BRANCH  52  53
ATOM     53  C           0     133.710 134.137 141.662  0.00  0.00     0.103 C 
BRANCH  53  54
ATOM     54  C           0     133.237 134.300 140.240  0.00  0.00     0.217 C 
ATOM     55  N           0     134.010 134.942 139.343  0.00  0.00    -0.360 N 
ATOM     56  H           0     134.871 135.299 139.611  0.00  0.00     0.162 HD
ATOM     57  O           0     132.160 133.854 139.904  0.00  0.00    -0.274 OA
BRANCH  55  58
ATOM     58  C           0     133.550 135.101 137.961  0.00  0.00     0.142 C 
BRANCH  58  59
ATOM     59  C           0     134.738 135.466 137.067  0.00  0.00     0.142 C 
BRANCH  59  60
ATOM     60  N           0     134.718 134.631 135.863  0.00  0.00    -0.355 N 
ATOM     61  C           0     133.995 135.010 134.792  0.00  0.00     0.257 C 
ATOM     62  O           0     133.307 136.011 134.846  0.00  0.00    -0.267 OA
ATOM     63  H           0     135.226 133.804 135.838  0.00  0.00     0.162 HD
BRANCH  61  64
ATOM     64  C           0     134.037 134.209 133.552  0.00  0.00     0.104 C 
ATOM     65  C           0     134.768 134.715 132.368  0.00  0.00     0.298 C 
ATOM     66  O           0     134.892 133.859 131.318  0.00  0.00    -0.316 OA
ATOM     67  O           0     135.241 135.834 132.338  0.00  0.00    -0.259 OA
ATOM     68  C           0     133.729 133.024 131.030  0.00  0.00     0.200 C 
ATOM     69  C           0     133.434 132.154 132.262  0.00  0.00     0.036 A 
ATOM     70  C           0     133.408 133.025 133.496  0.00  0.00     0.016 C 
ATOM     71  C           0     132.172 131.575 132.100  0.00  0.00    -0.005 A 
ATOM     72  C           0     134.461 131.218 132.398  0.00  0.00    -0.005 A 
ATOM     73  C           0     131.932 130.262 132.073  0.00  0.00     0.026 A 
ATOM     74  C           0     133.001 129.349 132.214  0.00  0.00     0.029 A 
ATOM     75  C           0     134.295 129.893 132.380  0.00  0.00     0.026 A 
BRANCH  74  76
ATOM     76  N           0     132.790 127.975 132.190  0.00  0.00    -0.382 N 
BRANCH  76  77
ATOM     77  C           0     131.508 127.424 132.636  0.00  0.00     0.118 C 
ATOM     78  C           0     130.723 126.914 131.426  0.00  0.00     0.026 C 
ENDBRANCH  76  77
BRANCH  76  79
ATOM     79  C           0     133.848 127.080 131.718  0.00  0.00     0.118 C 
ATOM     80  C           0     134.429 126.307 132.903  0.00  0.00     0.026 C 
ENDBRANCH  76  79
ENDBRANCH  74  76
ENDBRANCH  61  64
ENDBRANCH  59  60
ENDBRANCH  58  59
ENDBRANCH  55  58
ENDBRANCH  53  54
ENDBRANCH  52  53
ENDBRANCH  51  52
ENDBRANCH  50  51
ENDBRANCH  49  50
ENDBRANCH  48  49
ENDBRANCH  47  48
ENDBRANCH   4  47
TORSDOF 26
ENDMDL
MODEL 2
REMARK VINA RESULT:      -7.7      2.584     14.959
REMARK  26 active torsions:
REMARK  status: ('A' for Active; 'I' for Inactive)
REMARK    1  A    between atoms: C_6  and  C_7 
REMARK    2  A    between atoms: C_7  and  O_8 
REMARK    3  A    between atoms: O_8  and  C_9 
REMARK       I    between atoms: C_9  and  N_10 
REMARK    4  A    between atoms: N_10  and  C_11 
REMARK    5  A    between atoms: C_11  and  C_12 
REMARK    6  A    between atoms: C_12  and  N_13 
REMARK       I    between atoms: N_13  and  C_14 
REMARK    7  A    between atoms: C_14  and  C_15 
REMARK    8  A    between atoms: C_15  and  C_16 
REMARK    9  A    between atoms: C_16  and  N_17 
REMARK   10  A    between atoms: C_20  and  C_21 
REMARK   11  A    between atoms: C_21  and  C_22 
REMARK   12  A    between atoms: C_22  and  C_23 
REMARK   13  A    between atoms: C_23  and  C_24 
REMARK   14  A    between atoms: C_24  and  C_25 
REMARK   15  A    between atoms: C_25  and  C_26 
REMARK   16  A    between atoms: C_26  and  C_27 
REMARK   17  A    between atoms: C_27  and  C_28 
REMARK       I    between atoms: C_28  and  N_29 
REMARK   18  A    between atoms: N_29  and  C_30 
REMARK   19  A    between atoms: C_30  and  C_31 
REMARK   20  A    between atoms: C_31  and  N_32 
REMARK       I    between atoms: N_32  and  C_33 
REMARK   21  A    between atoms: C_33  and  C_34 
REMARK   22  A    between atoms: C_43  and  N_44 
REMARK   23  A    between atoms: N_44  and  C_45 
REMARK   24  A    between atoms: N_44  and  C_47 
REMARK   25  A    between atoms: C_69  and  O_70 
REMARK   26  A    between atoms: C_69  and  O_71 
ROOT
ATOM      1  N           0     133.211 134.405 139.128  0.00  0.00    -0.288 N 
ATOM      2  C           0     134.539 134.268 139.224  0.00  0.00     0.227 A 
ATOM      3  C           0     134.868 133.445 140.452  0.00  0.00     0.117 A 
ATOM      4  C           0     133.484 133.126 141.053  0.00  0.00     0.087 A 
ATOM      5  C           0     132.520 133.807 140.106  0.00  0.00     0.231 A 
ATOM      6  O           0     131.312 133.806 140.213  0.00  0.00    -0.273 OA
ATOM      7  O           0     135.351 134.731 138.452  0.00  0.00    -0.273 OA
ENDROOT
BRANCH   1   8
ATOM      8  C           0     132.567 135.151 138.044  0.00  0.00     0.144 C 
BRANCH   8   9
ATOM      9  C           0     132.585 134.311 136.766  0.00  0.00     0.123 C 
BRANCH   9  10
ATOM     10  C           0     133.252 135.091 135.662  0.00  0.00     0.219 C 
ATOM     11  N           0     132.829 134.955 134.389  0.00  0.00    -0.359 N 
ATOM     12  H           0     132.095 134.355 134.184  0.00  0.00     0.162 HD
ATOM     13  O           0     134.170 135.841 135.918  0.00  0.00    -0.274 OA
BRANCH  11  14
ATOM     14  C           0     133.477 135.713 133.317  0.00  0.00     0.142 C 
BRANCH  14  15
ATOM     15  C           0     133.358 134.941 132.001  0.00  0.00     0.144 C 
BRANCH  15  16
ATOM     16  N           0     133.521 133.509 132.260  0.00  0.00    -0.335 N 
ATOM     17  C           0     134.548 132.836 131.702  0.00  0.00     0.360 C 
ATOM     18  O           0     135.338 133.417 130.986  0.00  0.00    -0.239 OA
ATOM     19  H           0     132.890 133.044 132.832  0.00  0.00     0.164 HD
BRANCH  17  20
ATOM     20  O           0     134.698 131.519 131.940  0.00  0.00    -0.302 OA
BRANCH  20  21
ATOM     21  C           0     133.537 130.647 131.957  0.00  0.00     0.208 C 
BRANCH  21  22
ATOM     22  C           0     133.143 130.352 133.406  0.00  0.00     0.151 C 
ATOM     23  N           0     132.857 128.926 133.535  0.00  0.00    -0.218 N 
ATOM     24  C           0     131.721 128.427 132.923  0.00  0.00     0.672 C 
ATOM     25  H           0     133.448 128.343 134.037  0.00  0.00     0.178 HD
ATOM     26  N           0     131.640 127.193 132.510  0.00  0.00    -0.235 N 
ATOM     27  N           0     130.688 129.315 132.773  0.00  0.00    -0.183 N 
ATOM     28  H           0     132.392 126.592 132.628  0.00  0.00     0.174 HD
ATOM     29  H           0     130.826 126.875 132.089  0.00  0.00     0.174 HD
ATOM     30  C           0     130.616 130.673 133.314  0.00  0.00     0.217 C 
ATOM     31  C           0     129.450 129.141 131.993  0.00  0.00     0.150 C 
ATOM     32  C           0     131.958 131.222 133.776  0.00  0.00     0.180 C 
ATOM     33  C           0     130.001 131.528 132.194  0.00  0.00     0.209 C 
ATOM     34  N           0     129.757 130.719 134.509  0.00  0.00    -0.191 N 
ATOM     35  N           0     131.832 131.273 135.248  0.00  0.00    -0.216 N 
ATOM     36  C           0     130.494 131.219 135.553  0.00  0.00     0.670 C 
ATOM     37  H           0     132.562 131.332 135.883  0.00  0.00     0.178 HD
ATOM     38  N           0     129.988 131.597 136.692  0.00  0.00    -0.235 N 
ATOM     39  H           0     130.566 131.942 137.391  0.00  0.00     0.174 HD
ATOM     40  H           0     129.030 131.533 136.843  0.00  0.00     0.174 HD
ATOM     41  C           0     129.227 130.513 131.314  0.00  0.00     0.093 C 
ATOM     42  H           0     128.826 130.445 134.550  0.00  0.00     0.180 HD
BRANCH  33  43
ATOM     43  O           0     129.105 132.500 132.737  0.00  0.00    -0.362 OA
ATOM     44  H           0     128.657 132.917 131.988  0.00  0.00     0.213 HD
ENDBRANCH  33  43
BRANCH  33  45
ATOM     45  O           0     131.028 132.165 131.434  0.00  0.00    -0.362 OA
ATOM     46  H           0     131.503 131.466 130.963  0.00  0.00     0.213 HD
ENDBRANCH  33  45
ENDBRANCH  21  22
ENDBRANCH  20  21
ENDBRANCH  17  20
ENDBRANCH  15  16
ENDBRANCH  14  15
ENDBRANCH  11  14
ENDBRANCH   9  10
ENDBRANCH   8   9
ENDBRANCH   1   8
BRANCH   4  47
ATOM     47  C           0     133.359 133.717 142.459  0.00  0.00     0.014 C 
BRANCH  47  48
ATOM     48  C           0     134.697 134.333 142.874  0.00  0.00     0.001 C 
BRANCH  48  49
ATOM     49  C           0     135.094 133.806 144.255  0.00  0.00     0.000 C 
BRANCH  49  50
ATOM     50  C           0     134.920 132.286 144.289  0.00  0.00     0.000 C 
BRANCH  50  51
ATOM     51  C           0     136.059 131.626 143.509  0.00  0.00     0.000 C 
BRANCH  51  52
ATOM     52  C           0     137.401 132.039 144.118  0.00  0.00     0.009 C 
BRANCH  52  53
ATOM     53  C           0     138.132 132.975 143.152  0.00  0.00     0.103 C 
BRANCH  53  54
ATOM     54  C           0     139.119 133.817 143.919  0.00  0.00     0.217 C 
ATOM     55  N           0     138.730 134.989 144.458  0.00  0.00    -0.360 N 
ATOM     56  H           0     137.813 135.291 144.352  0.00  0.00     0.162 HD
ATOM     57  O           0     140.264 133.439 144.052  0.00  0.00    -0.274 OA
BRANCH  55  58
ATOM     58  C           0     139.689 135.807 145.204  0.00  0.00     0.142 C 
BRANCH  58  59
ATOM     59  C           0     139.404 135.687 146.702  0.00  0.00     0.142 C 
BRANCH  59  60
ATOM     60  N           0     139.301 134.272 147.068  0.00  0.00    -0.355 N 
ATOM     61  C           0     138.202 133.817 147.702  0.00  0.00     0.257 C 
ATOM     62  O           0     137.324 134.593 148.027  0.00  0.00    -0.267 OA
ATOM     63  H           0     140.025 133.662 146.855  0.00  0.00     0.162 HD
BRANCH  61  64
ATOM     64  C           0     138.064 132.378 148.001  0.00  0.00     0.104 C 
ATOM     65  C           0     139.163 131.653 148.677  0.00  0.00     0.298 C 
ATOM     66  O           0     138.906 130.373 149.055  0.00  0.00    -0.316 OA
ATOM     67  O           0     140.238 132.178 148.892  0.00  0.00    -0.259 OA
ATOM     68  C           0     138.107 129.578 148.128  0.00  0.00     0.200 C 
ATOM     69  C           0     136.740 130.258 147.952  0.00  0.00     0.036 A 
ATOM     70  C           0     136.944 131.725 147.654  0.00  0.00     0.016 C 
ATOM     71  C           0     136.091 129.670 146.862  0.00  0.00    -0.005 A 
ATOM     72  C           0     136.031 130.141 149.149  0.00  0.00    -0.005 A 
ATOM     73  C           0     134.911 129.047 146.921  0.00  0.00     0.026 A 
ATOM     74  C           0     134.227 128.952 148.154  0.00  0.00     0.029 A 
ATOM     75  C           0     134.849 129.534 149.282  0.00  0.00     0.026 A 
BRANCH  74  76
ATOM     76  N           0     132.998 128.311 148.254  0.00  0.00    -0.382 N 
BRANCH  76  77
ATOM     77  C           0     132.462 127.574 147.108  0.00  0.00     0.118 C 
ATOM     78  C           0     131.942 126.213 147.574  0.00  0.00     0.026 C 
ENDBRANCH  76  77
BRANCH  76  79
ATOM     79  C           0     132.239 128.373 149.505  0.00  0.00     0.118 C 
ATOM     80  C           0     131.314 129.592 149.481  0.00  0.00     0.026 C 
ENDBRANCH  76  79
ENDBRANCH  74  76
ENDBRANCH  61  64
ENDBRANCH  59  60
ENDBRANCH  58  59
ENDBRANCH  55  58
ENDBRANCH  53  54
ENDBRANCH  52  53
ENDBRANCH  51  52
ENDBRANCH  50  51
ENDBRANCH  49  50
ENDBRANCH  48  49
ENDBRANCH  47  48
ENDBRANCH   4  47
TORSDOF 26
ENDMDL
MODEL 3
REMARK VINA RESULT:      -7.5      2.871      6.986
REMARK  26 active torsions:
REMARK  status: ('A' for Active; 'I' for Inactive)
REMARK    1  A    between atoms: C_6  and  C_7 
REMARK    2  A    between atoms: C_7  and  O_8 
REMARK    3  A    between atoms: O_8  and  C_9 
REMARK       I    between atoms: C_9  and  N_10 
REMARK    4  A    between atoms: N_10  and  C_11 
REMARK    5  A    between atoms: C_11  and  C_12 
REMARK    6  A    between atoms: C_12  and  N_13 
REMARK       I    between atoms: N_13  and  C_14 
REMARK    7  A    between atoms: C_14  and  C_15 
REMARK    8  A    between atoms: C_15  and  C_16 
REMARK    9  A    between atoms: C_16  and  N_17 
REMARK   10  A    between atoms: C_20  and  C_21 
REMARK   11  A    between atoms: C_21  and  C_22 
REMARK   12  A    between atoms: C_22  and  C_23 
REMARK   13  A    between atoms: C_23  and  C_24 
REMARK   14  A    between atoms: C_24  and  C_25 
REMARK   15  A    between atoms: C_25  and  C_26 
REMARK   16  A    between atoms: C_26  and  C_27 
REMARK   17  A    between atoms: C_27  and  C_28 
REMARK       I    between atoms: C_28  and  N_29 
REMARK   18  A    between atoms: N_29  and  C_30 
REMARK   19  A    between atoms: C_30  and  C_31 
REMARK   20  A    between atoms: C_31  and  N_32 
REMARK       I    between atoms: N_32  and  C_33 
REMARK   21  A    between atoms: C_33  and  C_34 
REMARK   22  A    between atoms: C_43  and  N_44 
REMARK   23  A    between atoms: N_44  and  C_45 
REMARK   24  A    between atoms: N_44  and  C_47 
REMARK   25  A    between atoms: C_69  and  O_70 
REMARK   26  A    between atoms: C_69  and  O_71 
ROOT
ATOM      1  N           0     132.784 134.190 139.841  0.00  0.00    -0.288 N 
ATOM      2  C           0     133.119 134.551 138.597  0.00  0.00     0.227 A 
ATOM      3  C           0     132.070 134.043 137.631  0.00  0.00     0.117 A 
ATOM      4  C           0     131.060 133.319 138.545  0.00  0.00     0.087 A 
ATOM      5  C           0     131.647 133.490 139.929  0.00  0.00     0.231 A 
ATOM      6  O           0     131.161 133.064 140.954  0.00  0.00    -0.273 OA
ATOM      7  O           0     134.108 135.183 138.291  0.00  0.00    -0.273 OA
ENDROOT
BRANCH   1   8
ATOM      8  C           0     133.597 134.530 141.012  0.00  0.00     0.144 C 
BRANCH   8   9
ATOM      9  C           0     134.415 133.310 141.438  0.00  0.00     0.123 C 
BRANCH   9  10
ATOM     10  C           0     135.131 133.611 142.729  0.00  0.00     0.219 C 
ATOM     11  N           0     136.170 134.470 142.739  0.00  0.00    -0.359 N 
ATOM     12  H           0     136.456 134.895 141.915  0.00  0.00     0.162 HD
ATOM     13  O           0     134.774 133.081 143.760  0.00  0.00    -0.274 OA
BRANCH  11  14
ATOM     14  C           0     136.865 134.763 143.994  0.00  0.00     0.142 C 
BRANCH  14  15
ATOM     15  C           0     138.342 134.385 143.860  0.00  0.00     0.144 C 
BRANCH  15  16
ATOM     16  N           0     138.707 133.453 144.928  0.00  0.00    -0.335 N 
ATOM     17  C           0     139.907 132.839 144.906  0.00  0.00     0.360 C 
ATOM     18  O           0     140.686 133.059 144.001  0.00  0.00    -0.239 OA
ATOM     19  H           0     138.085 133.277 145.652  0.00  0.00     0.164 HD
BRANCH  17  20
ATOM     20  O           0     140.243 131.982 145.889  0.00  0.00    -0.302 OA
BRANCH  20  21
ATOM     21  C           0     139.285 130.992 146.347  0.00  0.00     0.208 C 
BRANCH  21  22
ATOM     22  C           0     138.910 131.281 147.802  0.00  0.00     0.151 C 
ATOM     23  N           0     138.989 130.038 148.565  0.00  0.00    -0.218 N 
ATOM     24  C           0     138.047 129.055 148.317  0.00  0.00     0.672 C 
ATOM     25  H           0     139.683 129.905 149.229  0.00  0.00     0.178 HD
ATOM     26  N           0     138.301 127.789 148.495  0.00  0.00    -0.235 N 
ATOM     27  N           0     136.831 129.498 147.866  0.00  0.00    -0.183 N 
ATOM     28  H           0     139.174 127.510 148.812  0.00  0.00     0.174 HD
ATOM     29  H           0     137.616 127.127 148.316  0.00  0.00     0.174 HD
ATOM     30  C           0     136.391 130.890 147.759  0.00  0.00     0.217 C 
ATOM     31  C           0     135.716 128.695 147.332  0.00  0.00     0.150 C 
ATOM     32  C           0     137.526 131.900 147.835  0.00  0.00     0.180 C 
ATOM     33  C           0     135.633 130.978 146.424  0.00  0.00     0.209 C 
ATOM     34  N           0     135.492 131.245 148.869  0.00  0.00    -0.191 N 
ATOM     35  N           0     137.322 132.564 149.140  0.00  0.00    -0.216 N 
ATOM     36  C           0     136.028 132.321 149.532  0.00  0.00     0.670 C 
ATOM     37  H           0     137.982 133.078 149.631  0.00  0.00     0.178 HD
ATOM     38  N           0     135.388 133.026 150.422  0.00  0.00    -0.235 N 
ATOM     39  H           0     135.826 133.775 150.854  0.00  0.00     0.174 HD
ATOM     40  H           0     134.473 132.800 150.653  0.00  0.00     0.174 HD
ATOM     41  C           0     135.186 129.522 146.137  0.00  0.00     0.093 C 
ATOM     42  H           0     134.661 130.797 149.093  0.00  0.00     0.180 HD
BRANCH  33  43
ATOM     43  O           0     134.496 131.834 146.546  0.00  0.00    -0.362 OA
ATOM     44  H           0     134.776 132.714 146.259  0.00  0.00     0.213 HD
ENDBRANCH  33  43
BRANCH  33  45
ATOM     45  O           0     136.501 131.446 145.390  0.00  0.00    -0.362 OA
ATOM     46  H           0     136.090 132.239 145.018  0.00  0.00     0.213 HD
ENDBRANCH  33  45
ENDBRANCH  21  22
ENDBRANCH  20  21
ENDBRANCH  17  20
ENDBRANCH  15  16
ENDBRANCH  14  15
ENDBRANCH  11  14
ENDBRANCH   9  10
ENDBRANCH   8   9
ENDBRANCH   1   8
BRANCH   4  47
ATOM     47  C           0     130.972 131.836 138.181  0.00  0.00     0.014 C 
BRANCH  47  48
ATOM     48  C           0     130.051 131.661 136.971  0.00  0.00     0.001 C 
BRANCH  48  49
ATOM     49  C           0     130.881 131.249 135.753  0.00  0.00     0.000 C 
BRANCH  49  50
ATOM     50  C           0     130.166 131.693 134.476  0.00  0.00     0.000 C 
BRANCH  50  51
ATOM     51  C           0     130.033 130.500 133.526  0.00  0.00     0.000 C 
BRANCH  51  52
ATOM     52  C           0     130.040 130.997 132.079  0.00  0.00     0.009 C 
BRANCH  52  53
ATOM     53  C           0     128.600 131.216 131.608  0.00  0.00     0.103 C 
BRANCH  53  54
ATOM     54  C           0     128.310 132.694 131.550  0.00  0.00     0.217 C 
ATOM     55  N           0     129.270 133.555 131.161  0.00  0.00    -0.360 N 
ATOM     56  H           0     130.149 133.223 130.918  0.00  0.00     0.162 HD
ATOM     57  O           0     127.210 133.108 131.854  0.00  0.00    -0.274 OA
BRANCH  55  58
ATOM     58  C           0     128.987 134.991 131.105  0.00  0.00     0.142 C 
BRANCH  58  59
ATOM     59  C           0     130.092 135.757 131.836  0.00  0.00     0.142 C 
BRANCH  59  60
ATOM     60  N           0     131.264 134.891 131.995  0.00  0.00    -0.355 N 
ATOM     61  C           0     131.786 134.680 133.219  0.00  0.00     0.257 C 
ATOM     62  O           0     131.324 135.258 134.184  0.00  0.00    -0.267 OA
ATOM     63  H           0     131.665 134.471 131.217  0.00  0.00     0.162 HD
BRANCH  61  64
ATOM     64  C           0     132.917 133.747 133.388  0.00  0.00     0.104 C 
ATOM     65  C           0     134.000 134.062 134.347  0.00  0.00     0.298 C 
ATOM     66  O           0     134.926 133.089 134.560  0.00  0.00    -0.316 OA
ATOM     67  O           0     134.054 135.132 134.922  0.00  0.00    -0.259 OA
ATOM     68  C           0     135.330 132.319 133.388  0.00  0.00     0.200 C 
ATOM     69  C           0     134.089 131.615 132.814  0.00  0.00     0.036 A 
ATOM     70  C           0     132.967 132.615 132.668  0.00  0.00     0.016 C 
ATOM     71  C           0     134.411 131.120 131.547  0.00  0.00    -0.005 A 
ATOM     72  C           0     133.689 130.623 133.712  0.00  0.00    -0.005 A 
ATOM     73  C           0     134.354 129.834 131.193  0.00  0.00     0.026 A 
ATOM     74  C           0     133.943 128.863 132.133  0.00  0.00     0.029 A 
ATOM     75  C           0     133.609 129.321 133.428  0.00  0.00     0.026 A 
BRANCH  74  76
ATOM     76  N           0     133.871 127.515 131.801  0.00  0.00    -0.382 N 
BRANCH  76  77
ATOM     77  C           0     132.664 126.747 132.111  0.00  0.00     0.118 C 
ATOM     78  C           0     131.449 127.425 131.475  0.00  0.00     0.026 C 
ENDBRANCH  76  77
BRANCH  76  79
ATOM     79  C           0     135.004 126.864 131.138  0.00  0.00     0.118 C 
ATOM     80  C           0     135.288 125.522 131.815  0.00  0.00     0.026 C 
ENDBRANCH  76  79
ENDBRANCH  74  76
ENDBRANCH  61  64
ENDBRANCH  59  60
ENDBRANCH  58  59
ENDBRANCH  55  58
ENDBRANCH  53  54
ENDBRANCH  52  53
ENDBRANCH  51  52
ENDBRANCH  50  51
ENDBRANCH  49  50
ENDBRANCH  48  49
ENDBRANCH  47  48
ENDBRANCH   4  47
TORSDOF 26
ENDMDL
MODEL 4
REMARK VINA RESULT:      -6.9      2.753      7.024
REMARK  26 active torsions:
REMARK  status: ('A' for Active; 'I' for Inactive)
REMARK    1  A    between atoms: C_6  and  C_7 
REMARK    2  A    between atoms: C_7  and  O_8 
REMARK    3  A    between atoms: O_8  and  C_9 
REMARK       I    between atoms: C_9  and  N_10 
REMARK    4  A    between atoms: N_10  and  C_11 
REMARK    5  A    between atoms: C_11  and  C_12 
REMARK    6  A    between atoms: C_12  and  N_13 
REMARK       I    between atoms: N_13  and  C_14 
REMARK    7  A    between atoms: C_14  and  C_15 
REMARK    8  A    between atoms: C_15  and  C_16 
REMARK    9  A    between atoms: C_16  and  N_17 
REMARK   10  A    between atoms: C_20  and  C_21 
REMARK   11  A    between atoms: C_21  and  C_22 
REMARK   12  A    between atoms: C_22  and  C_23 
REMARK   13  A    between atoms: C_23  and  C_24 
REMARK   14  A    between atoms: C_24  and  C_25 
REMARK   15  A    between atoms: C_25  and  C_26 
REMARK   16  A    between atoms: C_26  and  C_27 
REMARK   17  A    between atoms: C_27  and  C_28 
REMARK       I    between atoms: C_28  and  N_29 
REMARK   18  A    between atoms: N_29  and  C_30 
REMARK   19  A    between atoms: C_30  and  C_31 
REMARK   20  A    between atoms: C_31  and  N_32 
REMARK       I    between atoms: N_32  and  C_33 
REMARK   21  A    between atoms: C_33  and  C_34 
REMARK   22  A    between atoms: C_43  and  N_44 
REMARK   23  A    between atoms: N_44  and  C_45 
REMARK   24  A    between atoms: N_44  and  C_47 
REMARK   25  A    between atoms: C_69  and  O_70 
REMARK   26  A    between atoms: C_69  and  O_71 
ROOT
ATOM      1  N           0     132.859 134.077 140.136  0.00  0.00    -0.288 N 
ATOM      2  C           0     133.204 134.627 138.966  0.00  0.00     0.227 A 
ATOM      3  C           0     132.190 134.234 137.913  0.00  0.00     0.117 A 
ATOM      4  C           0     131.190 133.352 138.687  0.00  0.00     0.087 A 
ATOM      5  C           0     131.746 133.336 140.094  0.00  0.00     0.231 A 
ATOM      6  O           0     131.257 132.748 141.035  0.00  0.00    -0.273 OA
ATOM      7  O           0     134.175 135.329 138.778  0.00  0.00    -0.273 OA
ENDROOT
BRANCH   1   8
ATOM      8  C           0     133.639 134.267 141.361  0.00  0.00     0.144 C 
BRANCH   8   9
ATOM      9  C           0     134.734 133.201 141.441  0.00  0.00     0.123 C 
BRANCH   9  10
ATOM     10  C           0     135.637 133.495 142.610  0.00  0.00     0.219 C 
ATOM     11  N           0     136.087 134.749 142.817  0.00  0.00    -0.359 N 
ATOM     12  H           0     135.829 135.462 142.212  0.00  0.00     0.162 HD
ATOM     13  O           0     135.960 132.603 143.367  0.00  0.00    -0.274 OA
BRANCH  11  14
ATOM     14  C           0     136.964 135.034 143.954  0.00  0.00     0.142 C 
BRANCH  14  15
ATOM     15  C           0     138.422 135.033 143.488  0.00  0.00     0.144 C 
BRANCH  15  16
ATOM     16  N           0     139.276 134.509 144.555  0.00  0.00    -0.335 N 
ATOM     17  C           0     139.992 133.384 144.354  0.00  0.00     0.360 C 
ATOM     18  O           0     139.929 132.806 143.287  0.00  0.00    -0.239 OA
ATOM     19  H           0     139.327 134.970 145.407  0.00  0.00     0.164 HD
BRANCH  17  20
ATOM     20  O           0     140.777 132.901 145.335  0.00  0.00    -0.302 OA
BRANCH  20  21
ATOM     21  C           0     140.195 132.125 146.415  0.00  0.00     0.208 C 
BRANCH  21  22
ATOM     22  C           0     138.669 132.196 146.330  0.00  0.00     0.151 C 
ATOM     23  N           0     138.180 133.087 147.379  0.00  0.00    -0.218 N 
ATOM     24  C           0     138.278 132.667 148.694  0.00  0.00     0.672 C 
ATOM     25  H           0     137.795 133.950 147.160  0.00  0.00     0.178 HD
ATOM     26  N           0     138.394 133.507 149.683  0.00  0.00    -0.235 N 
ATOM     27  N           0     138.251 131.311 148.888  0.00  0.00    -0.183 N 
ATOM     28  H           0     138.414 134.461 149.510  0.00  0.00     0.174 HD
ATOM     29  H           0     138.456 133.178 150.594  0.00  0.00     0.174 HD
ATOM     30  C           0     137.990 130.286 147.876  0.00  0.00     0.217 C 
ATOM     31  C           0     138.535 130.568 150.129  0.00  0.00     0.150 C 
ATOM     32  C           0     138.109 130.792 146.446  0.00  0.00     0.180 C 
ATOM     33  C           0     138.991 129.157 148.169  0.00  0.00     0.209 C 
ATOM     34  N           0     136.613 129.777 147.985  0.00  0.00    -0.191 N 
ATOM     35  N           0     136.715 130.783 145.950  0.00  0.00    -0.216 N 
ATOM     36  C           0     135.986 129.966 146.779  0.00  0.00     0.670 C 
ATOM     37  H           0     136.378 131.266 145.181  0.00  0.00     0.178 HD
ATOM     38  N           0     134.839 129.435 146.459  0.00  0.00    -0.235 N 
ATOM     39  H           0     134.450 129.609 145.588  0.00  0.00     0.174 HD
ATOM     40  H           0     134.375 128.865 147.093  0.00  0.00     0.174 HD
ATOM     41  C           0     139.356 129.342 149.664  0.00  0.00     0.093 C 
ATOM     42  H           0     136.218 129.373 148.774  0.00  0.00     0.180 HD
BRANCH  33  43
ATOM     43  O           0     138.385 127.880 147.959  0.00  0.00    -0.362 OA
ATOM     44  H           0     137.569 128.035 147.465  0.00  0.00     0.213 HD
ENDBRANCH  33  43
BRANCH  33  45
ATOM     45  O           0     140.154 129.298 147.351  0.00  0.00    -0.362 OA
ATOM     46  H           0     139.937 129.946 146.667  0.00  0.00     0.213 HD
ENDBRANCH  33  45
ENDBRANCH  21  22
ENDBRANCH  20  21
ENDBRANCH  17  20
ENDBRANCH  15  16
ENDBRANCH  14  15
ENDBRANCH  11  14
ENDBRANCH   9  10
ENDBRANCH   8   9
ENDBRANCH   1   8
BRANCH   4  47
ATOM     47  C           0     131.159 131.936 138.108  0.00  0.00     0.014 C 
BRANCH  47  48
ATOM     48  C           0     130.068 131.845 137.039  0.00  0.00     0.001 C 
BRANCH  48  49
ATOM     49  C           0     130.712 131.597 135.673  0.00  0.00     0.000 C 
BRANCH  49  50
ATOM     50  C           0     129.660 131.052 134.706  0.00  0.00     0.000 C 
BRANCH  50  51
ATOM     51  C           0     130.355 130.435 133.491  0.00  0.00     0.000 C 
BRANCH  51  52
ATOM     52  C           0     130.159 131.343 132.275  0.00  0.00     0.009 C 
BRANCH  52  53
ATOM     53  C           0     128.678 131.363 131.888  0.00  0.00     0.103 C 
BRANCH  53  54
ATOM     54  C           0     128.148 132.769 132.005  0.00  0.00     0.217 C 
ATOM     55  N           0     128.868 133.710 132.647  0.00  0.00    -0.360 N 
ATOM     56  H           0     129.728 133.482 133.035  0.00  0.00     0.162 HD
ATOM     57  O           0     127.073 133.055 131.520  0.00  0.00    -0.274 OA
BRANCH  55  58
ATOM     58  C           0     128.352 135.076 132.761  0.00  0.00     0.142 C 
BRANCH  58  59
ATOM     59  C           0     129.519 136.066 132.714  0.00  0.00     0.142 C 
BRANCH  59  60
ATOM     60  N           0     130.770 135.337 132.490  0.00  0.00    -0.355 N 
ATOM     61  C           0     131.515 134.938 133.538  0.00  0.00     0.257 C 
ATOM     62  O           0     131.183 135.238 134.669  0.00  0.00    -0.267 OA
ATOM     63  H           0     131.062 135.142 131.585  0.00  0.00     0.162 HD
BRANCH  61  64
ATOM     64  C           0     132.735 134.136 133.315  0.00  0.00     0.104 C 
ATOM     65  C           0     134.058 134.678 133.695  0.00  0.00     0.298 C 
ATOM     66  O           0     135.115 133.827 133.601  0.00  0.00    -0.316 OA
ATOM     67  O           0     134.193 135.823 134.081  0.00  0.00    -0.259 OA
ATOM     68  C           0     135.112 132.925 132.454  0.00  0.00     0.200 C 
ATOM     69  C           0     133.854 132.044 132.527  0.00  0.00     0.036 A 
ATOM     70  C           0     132.643 132.917 132.761  0.00  0.00     0.016 C 
ATOM     71  C           0     133.701 131.392 131.299  0.00  0.00    -0.005 A 
ATOM     72  C           0     133.990 131.170 133.607  0.00  0.00    -0.005 A 
ATOM     73  C           0     133.682 130.067 131.136  0.00  0.00     0.026 A 
ATOM     74  C           0     133.822 129.218 132.257  0.00  0.00     0.029 A 
ATOM     75  C           0     133.980 129.837 133.518  0.00  0.00     0.026 A 
BRANCH  74  76
ATOM     76  N           0     133.807 127.835 132.126  0.00  0.00    -0.382 N 
BRANCH  76  77
ATOM     77  C           0     135.032 127.064 132.349  0.00  0.00     0.118 C 
ATOM     78  C           0     134.857 125.652 131.789  0.00  0.00     0.026 C 
ENDBRANCH  76  77
BRANCH  76  79
ATOM     79  C           0     132.565 127.147 131.765  0.00  0.00     0.118 C 
ATOM     80  C           0     131.667 127.037 132.999  0.00  0.00     0.026 C 
ENDBRANCH  76  79
ENDBRANCH  74  76
ENDBRANCH  61  64
ENDBRANCH  59  60
ENDBRANCH  58  59
ENDBRANCH  55  58
ENDBRANCH  53  54
ENDBRANCH  52  53
ENDBRANCH  51  52
ENDBRANCH  50  51
ENDBRANCH  49  50
ENDBRANCH  48  49
ENDBRANCH  47  48
ENDBRANCH   4  47
TORSDOF 26
ENDMDL
MODEL 5
REMARK VINA RESULT:      -6.6      2.842     15.007
REMARK  26 active torsions:
REMARK  status: ('A' for Active; 'I' for Inactive)
REMARK    1  A    between atoms: C_6  and  C_7 
REMARK    2  A    between atoms: C_7  and  O_8 
REMARK    3  A    between atoms: O_8  and  C_9 
REMARK       I    between atoms: C_9  and  N_10 
REMARK    4  A    between atoms: N_10  and  C_11 
REMARK    5  A    between atoms: C_11  and  C_12 
REMARK    6  A    between atoms: C_12  and  N_13 
REMARK       I    between atoms: N_13  and  C_14 
REMARK    7  A    between atoms: C_14  and  C_15 
REMARK    8  A    between atoms: C_15  and  C_16 
REMARK    9  A    between atoms: C_16  and  N_17 
REMARK   10  A    between atoms: C_20  and  C_21 
REMARK   11  A    between atoms: C_21  and  C_22 
REMARK   12  A    between atoms: C_22  and  C_23 
REMARK   13  A    between atoms: C_23  and  C_24 
REMARK   14  A    between atoms: C_24  and  C_25 
REMARK   15  A    between atoms: C_25  and  C_26 
REMARK   16  A    between atoms: C_26  and  C_27 
REMARK   17  A    between atoms: C_27  and  C_28 
REMARK       I    between atoms: C_28  and  N_29 
REMARK   18  A    between atoms: N_29  and  C_30 
REMARK   19  A    between atoms: C_30  and  C_31 
REMARK   20  A    between atoms: C_31  and  N_32 
REMARK       I    between atoms: N_32  and  C_33 
REMARK   21  A    between atoms: C_33  and  C_34 
REMARK   22  A    between atoms: C_43  and  N_44 
REMARK   23  A    between atoms: N_44  and  C_45 
REMARK   24  A    between atoms: N_44  and  C_47 
REMARK   25  A    between atoms: C_69  and  O_70 
REMARK   26  A    between atoms: C_69  and  O_71 
ROOT
ATOM      1  N           0     132.222 133.498 139.896  0.00  0.00    -0.288 N 
ATOM      2  C           0     132.911 134.552 139.445  0.00  0.00     0.227 A 
ATOM      3  C           0     134.113 134.780 140.336  0.00  0.00     0.117 A 
ATOM      4  C           0     133.997 133.661 141.390  0.00  0.00     0.087 A 
ATOM      5  C           0     132.740 132.923 140.988  0.00  0.00     0.231 A 
ATOM      6  O           0     132.278 131.959 141.561  0.00  0.00    -0.273 OA
ATOM      7  O           0     132.618 135.221 138.477  0.00  0.00    -0.273 OA
ENDROOT
BRANCH   1   8
ATOM      8  C           0     130.998 133.015 139.251  0.00  0.00     0.144 C 
BRANCH   8   9
ATOM      9  C           0     131.317 131.776 138.413  0.00  0.00     0.123 C 
BRANCH   9  10
ATOM     10  C           0     130.372 131.704 137.242  0.00  0.00     0.219 C 
ATOM     11  N           0     130.857 131.689 135.984  0.00  0.00    -0.359 N 
ATOM     12  H           0     131.815 131.724 135.833  0.00  0.00     0.162 HD
ATOM     13  O           0     129.175 131.660 137.429  0.00  0.00    -0.274 OA
BRANCH  11  14
ATOM     14  C           0     129.939 131.618 134.845  0.00  0.00     0.142 C 
BRANCH  14  15
ATOM     15  C           0     130.431 130.559 133.857  0.00  0.00     0.144 C 
BRANCH  15  16
ATOM     16  N           0     131.636 131.044 133.181  0.00  0.00    -0.335 N 
ATOM     17  C           0     131.734 130.965 131.838  0.00  0.00     0.360 C 
ATOM     18  O           0     130.822 130.491 131.190  0.00  0.00    -0.239 OA
ATOM     19  H           0     132.364 131.422 133.698  0.00  0.00     0.164 HD
BRANCH  17  20
ATOM     20  O           0     132.841 131.411 131.216  0.00  0.00    -0.302 OA
BRANCH  20  21
ATOM     21  C           0     133.564 132.551 131.750  0.00  0.00     0.208 C 
BRANCH  21  22
ATOM     22  C           0     132.833 133.841 131.371  0.00  0.00     0.151 C 
ATOM     23  N           0     133.809 134.808 130.876  0.00  0.00    -0.218 N 
ATOM     24  C           0     134.705 135.355 131.779  0.00  0.00     0.672 C 
ATOM     25  H           0     133.829 135.062 129.941  0.00  0.00     0.178 HD
ATOM     26  N           0     135.889 135.764 131.419  0.00  0.00    -0.235 N 
ATOM     27  N           0     134.269 135.433 133.075  0.00  0.00    -0.183 N 
ATOM     28  H           0     136.167 135.690 130.493  0.00  0.00     0.174 HD
ATOM     29  H           0     136.491 136.147 132.077  0.00  0.00     0.174 HD
ATOM     30  C           0     132.923 135.133 133.566  0.00  0.00     0.217 C 
ATOM     31  C           0     135.054 135.772 134.276  0.00  0.00     0.150 C 
ATOM     32  C           0     132.073 134.344 132.582  0.00  0.00     0.180 C 
ATOM     33  C           0     133.129 134.371 134.886  0.00  0.00     0.209 C 
ATOM     34  N           0     132.165 136.370 133.815  0.00  0.00    -0.191 N 
ATOM     35  N           0     131.046 135.315 132.144  0.00  0.00    -0.216 N 
ATOM     36  C           0     131.016 136.331 133.066  0.00  0.00     0.670 C 
ATOM     37  H           0     130.496 135.246 131.349  0.00  0.00     0.178 HD
ATOM     38  N           0     130.019 137.157 133.212  0.00  0.00    -0.235 N 
ATOM     39  H           0     129.234 137.075 132.649  0.00  0.00     0.174 HD
ATOM     40  H           0     130.061 137.855 133.886  0.00  0.00     0.174 HD
ATOM     41  C           0     134.544 134.792 135.359  0.00  0.00     0.093 C 
ATOM     42  H           0     132.432 137.089 134.410  0.00  0.00     0.180 HD
BRANCH  33  43
ATOM     43  O           0     132.147 134.758 135.849  0.00  0.00    -0.362 OA
ATOM     44  H           0     131.915 133.962 136.347  0.00  0.00     0.213 HD
ENDBRANCH  33  43
BRANCH  33  45
ATOM     45  O           0     133.078 132.961 134.659  0.00  0.00    -0.362 OA
ATOM     46  H           0     133.621 132.548 135.345  0.00  0.00     0.213 HD
ENDBRANCH  33  45
ENDBRANCH  21  22
ENDBRANCH  20  21
ENDBRANCH  17  20
ENDBRANCH  15  16
ENDBRANCH  14  15
ENDBRANCH  11  14
ENDBRANCH   9  10
ENDBRANCH   8   9
ENDBRANCH   1   8
BRANCH   4  47
ATOM     47  C           0     133.843 134.255 142.791  0.00  0.00     0.014 C 
BRANCH  47  48
ATOM     48  C           0     134.744 133.497 143.769  0.00  0.00     0.001 C 
BRANCH  48  49
ATOM     49  C           0     136.202 133.621 143.320  0.00  0.00     0.000 C 
BRANCH  49  50
ATOM     50  C           0     136.705 135.036 143.610  0.00  0.00     0.000 C 
BRANCH  50  51
ATOM     51  C           0     138.196 134.986 143.951  0.00  0.00     0.000 C 
BRANCH  51  52
ATOM     52  C           0     138.773 133.636 143.521  0.00  0.00     0.009 C 
BRANCH  52  53
ATOM     53  C           0     139.902 133.236 144.474  0.00  0.00     0.103 C 
BRANCH  53  54
ATOM     54  C           0     139.500 133.559 145.890  0.00  0.00     0.217 C 
ATOM     55  N           0     140.280 134.356 146.647  0.00  0.00    -0.360 N 
ATOM     56  H           0     141.100 134.722 146.280  0.00  0.00     0.162 HD
ATOM     57  O           0     138.474 133.102 146.349  0.00  0.00    -0.274 OA
BRANCH  55  58
ATOM     58  C           0     139.889 134.670 148.024  0.00  0.00     0.142 C 
BRANCH  58  59
ATOM     59  C           0     140.647 133.757 148.990  0.00  0.00     0.142 C 
BRANCH  59  60
ATOM     60  N           0     140.140 132.387 148.866  0.00  0.00    -0.355 N 
ATOM     61  C           0     139.125 131.970 149.648  0.00  0.00     0.257 C 
ATOM     62  O           0     138.672 132.709 150.500  0.00  0.00    -0.267 OA
ATOM     63  H           0     140.537 131.780 148.221  0.00  0.00     0.162 HD
BRANCH  61  64
ATOM     64  C           0     138.564 130.617 149.469  0.00  0.00     0.104 C 
ATOM     65  C           0     139.383 129.426 149.790  0.00  0.00     0.298 C 
ATOM     66  O           0     138.751 128.223 149.746  0.00  0.00    -0.316 OA
ATOM     67  O           0     140.559 129.520 150.086  0.00  0.00    -0.259 OA
ATOM     68  C           0     137.781 128.046 148.671  0.00  0.00     0.200 C 
ATOM     69  C           0     136.678 129.106 148.827  0.00  0.00     0.036 A 
ATOM     70  C           0     137.311 130.465 149.011  0.00  0.00     0.016 C 
ATOM     71  C           0     135.916 129.125 147.655  0.00  0.00    -0.005 A 
ATOM     72  C           0     135.933 128.803 149.969  0.00  0.00    -0.005 A 
ATOM     73  C           0     134.605 128.883 147.594  0.00  0.00     0.026 A 
ATOM     74  C           0     133.889 128.581 148.774  0.00  0.00     0.029 A 
ATOM     75  C           0     134.622 128.550 149.981  0.00  0.00     0.026 A 
BRANCH  74  76
ATOM     76  N           0     132.523 128.323 148.748  0.00  0.00    -0.382 N 
BRANCH  76  77
ATOM     77  C           0     131.939 127.579 147.630  0.00  0.00     0.118 C 
ATOM     78  C           0     132.717 126.278 147.420  0.00  0.00     0.026 C 
ENDBRANCH  76  77
BRANCH  76  79
ATOM     79  C           0     131.669 128.794 149.840  0.00  0.00     0.118 C 
ATOM     80  C           0     131.101 130.170 149.487  0.00  0.00     0.026 C 
ENDBRANCH  76  79
ENDBRANCH  74  76
ENDBRANCH  61  64
ENDBRANCH  59  60
ENDBRANCH  58  59
ENDBRANCH  55  58
ENDBRANCH  53  54
ENDBRANCH  52  53
ENDBRANCH  51  52
ENDBRANCH  50  51
ENDBRANCH  49  50
ENDBRANCH  48  49
ENDBRANCH  47  48
ENDBRANCH   4  47
TORSDOF 26
ENDMDL
MODEL 6
REMARK VINA RESULT:      -6.5      3.694     10.740
REMARK  26 active torsions:
REMARK  status: ('A' for Active; 'I' for Inactive)
REMARK    1  A    between atoms: C_6  and  C_7 
REMARK    2  A    between atoms: C_7  and  O_8 
REMARK    3  A    between atoms: O_8  and  C_9 
REMARK       I    between atoms: C_9  and  N_10 
REMARK    4  A    between atoms: N_10  and  C_11 
REMARK    5  A    between atoms: C_11  and  C_12 
REMARK    6  A    between atoms: C_12  and  N_13 
REMARK       I    between atoms: N_13  and  C_14 
REMARK    7  A    between atoms: C_14  and  C_15 
REMARK    8  A    between atoms: C_15  and  C_16 
REMARK    9  A    between atoms: C_16  and  N_17 
REMARK   10  A    between atoms: C_20  and  C_21 
REMARK   11  A    between atoms: C_21  and  C_22 
REMARK   12  A    between atoms: C_22  and  C_23 
REMARK   13  A    between atoms: C_23  and  C_24 
REMARK   14  A    between atoms: C_24  and  C_25 
REMARK   15  A    between atoms: C_25  and  C_26 
REMARK   16  A    between atoms: C_26  and  C_27 
REMARK   17  A    between atoms: C_27  and  C_28 
REMARK       I    between atoms: C_28  and  N_29 
REMARK   18  A    between atoms: N_29  and  C_30 
REMARK   19  A    between atoms: C_30  and  C_31 
REMARK   20  A    between atoms: C_31  and  N_32 
REMARK       I    between atoms: N_32  and  C_33 
REMARK   21  A    between atoms: C_33  and  C_34 
REMARK   22  A    between atoms: C_43  and  N_44 
REMARK   23  A    between atoms: N_44  and  C_45 
REMARK   24  A    between atoms: N_44  and  C_47 
REMARK   25  A    between atoms: C_69  and  O_70 
REMARK   26  A    between atoms: C_69  and  O_71 
ROOT
ATOM      1  N           0     130.113 131.651 133.332  0.00  0.00    -0.288 N 
ATOM      2  C           0     129.486 132.411 132.426  0.00  0.00     0.227 A 
ATOM      3  C           0     128.668 131.524 131.513  0.00  0.00     0.117 A 
ATOM      4  C           0     128.933 130.105 132.056  0.00  0.00     0.087 A 
ATOM      5  C           0     129.877 130.339 133.215  0.00  0.00     0.231 A 
ATOM      6  O           0     130.342 129.475 133.927  0.00  0.00    -0.273 OA
ATOM      7  O           0     129.563 133.618 132.347  0.00  0.00    -0.273 OA
ENDROOT
BRANCH   1   8
ATOM      8  C           0     130.988 132.210 134.366  0.00  0.00     0.144 C 
BRANCH   8   9
ATOM      9  C           0     130.527 131.726 135.742  0.00  0.00     0.123 C 
BRANCH   9  10
ATOM     10  C           0     131.070 132.645 136.805  0.00  0.00     0.219 C 
ATOM     11  N           0     130.668 132.507 138.085  0.00  0.00    -0.359 N 
ATOM     12  H           0     130.029 131.816 138.320  0.00  0.00     0.162 HD
ATOM     13  O           0     131.869 133.509 136.511  0.00  0.00    -0.274 OA
BRANCH  11  14
ATOM     14  C           0     131.195 133.400 139.119  0.00  0.00     0.142 C 
BRANCH  14  15
ATOM     15  C           0     131.649 132.574 140.324  0.00  0.00     0.144 C 
BRANCH  15  16
ATOM     16  N           0     132.793 133.228 140.962  0.00  0.00    -0.335 N 
ATOM     17  C           0     133.678 132.498 141.670  0.00  0.00     0.360 C 
ATOM     18  O           0     133.527 131.297 141.779  0.00  0.00    -0.239 OA
ATOM     19  H           0     132.915 134.186 140.875  0.00  0.00     0.164 HD
BRANCH  17  20
ATOM     20  O           0     134.731 133.098 142.256  0.00  0.00    -0.302 OA
BRANCH  20  21
ATOM     21  C           0     135.949 132.349 142.504  0.00  0.00     0.208 C 
BRANCH  21  22
ATOM     22  C           0     135.973 131.880 143.960  0.00  0.00     0.151 C 
ATOM     23  N           0     135.285 132.870 144.785  0.00  0.00    -0.218 N 
ATOM     24  C           0     135.889 134.101 144.972  0.00  0.00     0.672 C 
ATOM     25  H           0     134.428 132.670 145.192  0.00  0.00     0.178 HD
ATOM     26  N           0     135.200 135.185 145.193  0.00  0.00    -0.235 N 
ATOM     27  N           0     137.257 134.109 144.902  0.00  0.00    -0.183 N 
ATOM     28  H           0     134.232 135.144 145.232  0.00  0.00     0.174 HD
ATOM     29  H           0     135.656 136.031 145.324  0.00  0.00     0.174 HD
ATOM     30  C           0     138.135 132.942 144.795  0.00  0.00     0.217 C 
ATOM     31  C           0     138.156 135.276 144.857  0.00  0.00     0.150 C 
ATOM     32  C           0     137.414 131.668 144.381  0.00  0.00     0.180 C 
ATOM     33  C           0     139.223 133.340 143.784  0.00  0.00     0.209 C 
ATOM     34  N           0     138.750 132.624 146.094  0.00  0.00    -0.191 N 
ATOM     35  N           0     137.447 130.830 145.599  0.00  0.00    -0.216 N 
ATOM     36  C           0     138.427 131.331 146.420  0.00  0.00     0.670 C 
ATOM     37  H           0     136.878 130.067 145.784  0.00  0.00     0.178 HD
ATOM     38  N           0     138.983 130.659 147.389  0.00  0.00    -0.235 N 
ATOM     39  H           0     138.708 129.746 147.568  0.00  0.00     0.174 HD
ATOM     40  H           0     139.673 131.073 147.933  0.00  0.00     0.174 HD
ATOM     41  C           0     139.238 134.889 143.822  0.00  0.00     0.093 C 
ATOM     42  H           0     139.294 133.226 146.627  0.00  0.00     0.180 HD
BRANCH  33  43
ATOM     43  O           0     140.493 132.820 144.181  0.00  0.00    -0.362 OA
ATOM     44  H           0     140.322 132.135 144.841  0.00  0.00     0.213 HD
ENDBRANCH  33  43
BRANCH  33  45
ATOM     45  O           0     138.881 132.877 142.477  0.00  0.00    -0.362 OA
ATOM     46  H           0     138.894 131.910 142.510  0.00  0.00     0.213 HD
ENDBRANCH  33  45
ENDBRANCH  21  22
ENDBRANCH  20  21
ENDBRANCH  17  20
ENDBRANCH  15  16
ENDBRANCH  14  15
ENDBRANCH  11  14
ENDBRANCH   9  10
ENDBRANCH   8   9
ENDBRANCH   1   8
BRANCH   4  47
ATOM     47  C           0     129.602 129.236 130.989  0.00  0.00     0.014 C 
BRANCH  47  48
ATOM     48  C           0     131.123 129.333 131.131  0.00  0.00     0.001 C 
BRANCH  48  49
ATOM     49  C           0     131.744 127.951 130.917  0.00  0.00     0.000 C 
BRANCH  49  50
ATOM     50  C           0     131.097 126.948 131.874  0.00  0.00     0.000 C 
BRANCH  50  51
ATOM     51  C           0     132.179 126.298 132.738  0.00  0.00     0.000 C 
BRANCH  51  52
ATOM     52  C           0     133.555 126.583 132.132  0.00  0.00     0.009 C 
BRANCH  52  53
ATOM     53  C           0     134.453 127.233 133.187  0.00  0.00     0.103 C 
BRANCH  53  54
ATOM     54  C           0     134.447 128.728 132.998  0.00  0.00     0.217 C 
ATOM     55  N           0     134.630 129.253 131.771  0.00  0.00    -0.360 N 
ATOM     56  H           0     134.766 128.668 131.008  0.00  0.00     0.162 HD
ATOM     57  O           0     134.278 129.460 133.952  0.00  0.00    -0.274 OA
BRANCH  55  58
ATOM     58  C           0     134.625 130.707 131.587  0.00  0.00     0.142 C 
BRANCH  58  59
ATOM     59  C           0     135.523 131.357 132.642  0.00  0.00     0.142 C 
BRANCH  59  60
ATOM     60  N           0     134.781 132.415 133.331  0.00  0.00    -0.355 N 
ATOM     61  C           0     134.735 133.657 132.810  0.00  0.00     0.257 C 
ATOM     62  O           0     135.362 133.915 131.801  0.00  0.00    -0.267 OA
ATOM     63  H           0     134.322 132.221 134.165  0.00  0.00     0.162 HD
BRANCH  61  64
ATOM     64  C           0     133.923 134.702 133.463  0.00  0.00     0.104 C 
ATOM     65  C           0     134.218 135.107 134.857  0.00  0.00     0.298 C 
ATOM     66  O           0     133.530 136.177 135.338  0.00  0.00    -0.316 OA
ATOM     67  O           0     135.039 134.519 135.533  0.00  0.00    -0.259 OA
ATOM     68  C           0     132.129 136.272 134.940  0.00  0.00     0.200 C 
ATOM     69  C           0     132.062 136.370 133.407  0.00  0.00     0.036 A 
ATOM     70  C           0     132.913 135.282 132.796  0.00  0.00     0.016 C 
ATOM     71  C           0     130.735 136.172 133.011  0.00  0.00    -0.005 A 
ATOM     72  C           0     132.577 137.609 133.021  0.00  0.00    -0.005 A 
ATOM     73  C           0     130.002 137.056 132.331  0.00  0.00     0.026 A 
ATOM     74  C           0     130.563 138.299 131.959  0.00  0.00     0.029 A 
ATOM     75  C           0     131.902 138.540 132.341  0.00  0.00     0.026 A 
BRANCH  74  76
ATOM     76  N           0     129.830 139.243 131.251  0.00  0.00    -0.382 N 
BRANCH  76  77
ATOM     77  C           0     128.442 138.962 130.875  0.00  0.00     0.118 C 
ATOM     78  C           0     127.520 140.006 131.507  0.00  0.00     0.026 C 
ENDBRANCH  76  77
BRANCH  76  79
ATOM     79  C           0     130.444 140.521 130.882  0.00  0.00     0.118 C 
ATOM     80  C           0     129.885 141.631 131.774  0.00  0.00     0.026 C 
ENDBRANCH  76  79
ENDBRANCH  74  76
ENDBRANCH  61  64
ENDBRANCH  59  60
ENDBRANCH  58  59
ENDBRANCH  55  58
ENDBRANCH  53  54
ENDBRANCH  52  53
ENDBRANCH  51  52
ENDBRANCH  50  51
ENDBRANCH  49  50
ENDBRANCH  48  49
ENDBRANCH  47  48
ENDBRANCH   4  47
TORSDOF 26
ENDMDL
MODEL 7
REMARK VINA RESULT:      -6.5      4.519     15.198
REMARK  26 active torsions:
REMARK  status: ('A' for Active; 'I' for Inactive)
REMARK    1  A    between atoms: C_6  and  C_7 
REMARK    2  A    between atoms: C_7  and  O_8 
REMARK    3  A    between atoms: O_8  and  C_9 
REMARK       I    between atoms: C_9  and  N_10 
REMARK    4  A    between atoms: N_10  and  C_11 
REMARK    5  A    between atoms: C_11  and  C_12 
REMARK    6  A    between atoms: C_12  and  N_13 
REMARK       I    between atoms: N_13  and  C_14 
REMARK    7  A    between atoms: C_14  and  C_15 
REMARK    8  A    between atoms: C_15  and  C_16 
REMARK    9  A    between atoms: C_16  and  N_17 
REMARK   10  A    between atoms: C_20  and  C_21 
REMARK   11  A    between atoms: C_21  and  C_22 
REMARK   12  A    between atoms: C_22  and  C_23 
REMARK   13  A    between atoms: C_23  and  C_24 
REMARK   14  A    between atoms: C_24  and  C_25 
REMARK   15  A    between atoms: C_25  and  C_26 
REMARK   16  A    between atoms: C_26  and  C_27 
REMARK   17  A    between atoms: C_27  and  C_28 
REMARK       I    between atoms: C_28  and  N_29 
REMARK   18  A    between atoms: N_29  and  C_30 
REMARK   19  A    between atoms: C_30  and  C_31 
REMARK   20  A    between atoms: C_31  and  N_32 
REMARK       I    between atoms: N_32  and  C_33 
REMARK   21  A    between atoms: C_33  and  C_34 
REMARK   22  A    between atoms: C_43  and  N_44 
REMARK   23  A    between atoms: N_44  and  C_45 
REMARK   24  A    between atoms: N_44  and  C_47 
REMARK   25  A    between atoms: C_69  and  O_70 
REMARK   26  A    between atoms: C_69  and  O_71 
ROOT
ATOM      1  N           0     132.115 126.394 132.095  0.00  0.00    -0.288 N 
ATOM      2  C           0     132.803 125.605 132.929  0.00  0.00     0.227 A 
ATOM      3  C           0     134.191 126.178 133.126  0.00  0.00     0.117 A 
ATOM      4  C           0     134.183 127.449 132.253  0.00  0.00     0.087 A 
ATOM      5  C           0     132.795 127.457 131.650  0.00  0.00     0.231 A 
ATOM      6  O           0     132.366 128.298 130.889  0.00  0.00    -0.273 OA
ATOM      7  O           0     132.383 124.590 133.443  0.00  0.00    -0.273 OA
ENDROOT
BRANCH   1   8
ATOM      8  C           0     130.733 126.114 131.699  0.00  0.00     0.144 C 
BRANCH   8   9
ATOM      9  C           0     130.139 127.346 131.014  0.00  0.00     0.123 C 
BRANCH   9  10
ATOM     10  C           0     129.425 128.194 132.035  0.00  0.00     0.219 C 
ATOM     11  N           0     129.984 129.341 132.470  0.00  0.00    -0.359 N 
ATOM     12  H           0     130.847 129.620 132.126  0.00  0.00     0.162 HD
ATOM     13  O           0     128.346 127.845 132.466  0.00  0.00    -0.274 OA
BRANCH  11  14
ATOM     14  C           0     129.290 130.164 133.462  0.00  0.00     0.142 C 
BRANCH  14  15
ATOM     15  C           0     130.005 131.510 133.598  0.00  0.00     0.144 C 
BRANCH  15  16
ATOM     16  N           0     129.381 132.488 132.705  0.00  0.00    -0.335 N 
ATOM     17  C           0     130.094 133.032 131.698  0.00  0.00     0.360 C 
ATOM     18  O           0     131.254 132.711 131.532  0.00  0.00    -0.239 OA
ATOM     19  H           0     128.455 132.744 132.836  0.00  0.00     0.164 HD
BRANCH  17  20
ATOM     20  O           0     129.521 133.931 130.876  0.00  0.00    -0.302 OA
BRANCH  20  21
ATOM     21  C           0     129.780 135.348 131.055  0.00  0.00     0.208 C 
BRANCH  21  22
ATOM     22  C           0     129.489 135.739 132.506  0.00  0.00     0.151 C 
ATOM     23  N           0     128.802 137.028 132.517  0.00  0.00    -0.218 N 
ATOM     24  C           0     129.519 138.156 132.156  0.00  0.00     0.672 C 
ATOM     25  H           0     127.869 137.093 132.772  0.00  0.00     0.178 HD
ATOM     26  N           0     128.948 139.198 131.621  0.00  0.00    -0.235 N 
ATOM     27  N           0     130.868 138.103 132.391  0.00  0.00    -0.183 N 
ATOM     28  H           0     127.991 139.200 131.464  0.00  0.00     0.174 HD
ATOM     29  H           0     129.480 139.974 131.383  0.00  0.00     0.174 HD
ATOM     30  C           0     131.591 137.049 133.104  0.00  0.00     0.217 C 
ATOM     31  C           0     131.903 139.048 131.936  0.00  0.00     0.150 C 
ATOM     32  C           0     130.795 135.765 133.275  0.00  0.00     0.180 C 
ATOM     33  C           0     132.881 136.822 132.298  0.00  0.00     0.209 C 
ATOM     34  N           0     131.925 137.474 134.474  0.00  0.00    -0.191 N 
ATOM     35  N           0     130.506 135.718 134.725  0.00  0.00    -0.216 N 
ATOM     36  C           0     131.385 136.567 135.351  0.00  0.00     0.670 C 
ATOM     37  H           0     129.820 135.184 135.155  0.00  0.00     0.178 HD
ATOM     38  N           0     131.672 136.517 136.621  0.00  0.00    -0.235 N 
ATOM     39  H           0     131.255 135.849 137.187  0.00  0.00     0.174 HD
ATOM     40  H           0     132.305 137.148 137.001  0.00  0.00     0.174 HD
ATOM     41  C           0     133.090 138.146 131.521  0.00  0.00     0.093 C 
ATOM     42  H           0     132.441 138.260 134.715  0.00  0.00     0.180 HD
BRANCH  33  43
ATOM     43  O           0     133.985 136.579 133.173  0.00  0.00    -0.362 OA
ATOM     44  H           0     134.411 137.432 133.330  0.00  0.00     0.213 HD
ENDBRANCH  33  43
BRANCH  33  45
ATOM     45  O           0     132.714 135.731 131.391  0.00  0.00    -0.362 OA
ATOM     46  H           0     131.990 135.971 130.796  0.00  0.00     0.213 HD
ENDBRANCH  33  45
ENDBRANCH  21  22
ENDBRANCH  20  21
ENDBRANCH  17  20
ENDBRANCH  15  16
ENDBRANCH  14  15
ENDBRANCH  11  14
ENDBRANCH   9  10
ENDBRANCH   8   9
ENDBRANCH   1   8
BRANCH   4  47
ATOM     47  C           0     135.242 127.353 131.153  0.00  0.00     0.014 C 
BRANCH  47  48
ATOM     48  C           0     135.950 128.702 131.008  0.00  0.00     0.001 C 
BRANCH  48  49
ATOM     49  C           0     135.739 129.529 132.278  0.00  0.00     0.000 C 
BRANCH  49  50
ATOM     50  C           0     136.455 130.873 132.136  0.00  0.00     0.000 C 
BRANCH  50  51
ATOM     51  C           0     135.678 131.764 131.164  0.00  0.00     0.000 C 
BRANCH  51  52
ATOM     52  C           0     134.933 132.846 131.949  0.00  0.00     0.009 C 
BRANCH  52  53
ATOM     53  C           0     134.832 132.433 133.419  0.00  0.00     0.103 C 
BRANCH  53  54
ATOM     54  C           0     134.213 133.553 134.214  0.00  0.00     0.217 C 
ATOM     55  N           0     134.970 134.274 135.064  0.00  0.00    -0.360 N 
ATOM     56  H           0     135.914 134.072 135.164  0.00  0.00     0.162 HD
ATOM     57  O           0     133.033 133.806 134.089  0.00  0.00    -0.274 OA
BRANCH  55  58
ATOM     58  C           0     134.369 135.363 135.837  0.00  0.00     0.142 C 
BRANCH  58  59
ATOM     59  C           0     135.234 135.655 137.065  0.00  0.00     0.142 C 
BRANCH  59  60
ATOM     60  N           0     134.523 135.233 138.275  0.00  0.00    -0.355 N 
ATOM     61  C           0     134.964 134.174 138.982  0.00  0.00     0.257 C 
ATOM     62  O           0     135.913 133.529 138.580  0.00  0.00    -0.267 OA
ATOM     63  H           0     133.734 135.717 138.567  0.00  0.00     0.162 HD
BRANCH  61  64
ATOM     64  C           0     134.294 133.797 140.242  0.00  0.00     0.104 C 
ATOM     65  C           0     132.821 133.651 140.284  0.00  0.00     0.298 C 
ATOM     66  O           0     132.292 133.156 141.435  0.00  0.00    -0.316 OA
ATOM     67  O           0     132.122 133.950 139.336  0.00  0.00    -0.259 OA
ATOM     68  C           0     132.914 133.609 142.675  0.00  0.00     0.200 C 
ATOM     69  C           0     134.392 133.185 142.664  0.00  0.00     0.036 A 
ATOM     70  C           0     135.020 133.592 141.352  0.00  0.00     0.016 C 
ATOM     71  C           0     135.050 133.857 143.699  0.00  0.00    -0.005 A 
ATOM     72  C           0     134.454 131.795 142.777  0.00  0.00    -0.005 A 
ATOM     73  C           0     135.685 133.262 144.712  0.00  0.00     0.026 A 
ATOM     74  C           0     135.724 131.852 144.787  0.00  0.00     0.029 A 
ATOM     75  C           0     135.070 131.134 143.761  0.00  0.00     0.026 A 
BRANCH  74  76
ATOM     76  N           0     136.376 131.199 145.826  0.00  0.00    -0.382 N 
BRANCH  76  77
ATOM     77  C           0     137.839 131.151 145.858  0.00  0.00     0.118 C 
ATOM     78  C           0     138.386 132.517 146.279  0.00  0.00     0.026 C 
ENDBRANCH  76  77
BRANCH  76  79
ATOM     79  C           0     135.599 130.560 146.891  0.00  0.00     0.118 C 
ATOM     80  C           0     135.919 129.064 146.929  0.00  0.00     0.026 C 
ENDBRANCH  76  79
ENDBRANCH  74  76
ENDBRANCH  61  64
ENDBRANCH  59  60
ENDBRANCH  58  59
ENDBRANCH  55  58
ENDBRANCH  53  54
ENDBRANCH  52  53
ENDBRANCH  51  52
ENDBRANCH  50  51
ENDBRANCH  49  50
ENDBRANCH  48  49
ENDBRANCH  47  48
ENDBRANCH   4  47
TORSDOF 26
ENDMDL
MODEL 8
REMARK VINA RESULT:      -6.1      2.642     13.959
REMARK  26 active torsions:
REMARK  status: ('A' for Active; 'I' for Inactive)
REMARK    1  A    between atoms: C_6  and  C_7 
REMARK    2  A    between atoms: C_7  and  O_8 
REMARK    3  A    between atoms: O_8  and  C_9 
REMARK       I    between atoms: C_9  and  N_10 
REMARK    4  A    between atoms: N_10  and  C_11 
REMARK    5  A    between atoms: C_11  and  C_12 
REMARK    6  A    between atoms: C_12  and  N_13 
REMARK       I    between atoms: N_13  and  C_14 
REMARK    7  A    between atoms: C_14  and  C_15 
REMARK    8  A    between atoms: C_15  and  C_16 
REMARK    9  A    between atoms: C_16  and  N_17 
REMARK   10  A    between atoms: C_20  and  C_21 
REMARK   11  A    between atoms: C_21  and  C_22 
REMARK   12  A    between atoms: C_22  and  C_23 
REMARK   13  A    between atoms: C_23  and  C_24 
REMARK   14  A    between atoms: C_24  and  C_25 
REMARK   15  A    between atoms: C_25  and  C_26 
REMARK   16  A    between atoms: C_26  and  C_27 
REMARK   17  A    between atoms: C_27  and  C_28 
REMARK       I    between atoms: C_28  and  N_29 
REMARK   18  A    between atoms: N_29  and  C_30 
REMARK   19  A    between atoms: C_30  and  C_31 
REMARK   20  A    between atoms: C_31  and  N_32 
REMARK       I    between atoms: N_32  and  C_33 
REMARK   21  A    between atoms: C_33  and  C_34 
REMARK   22  A    between atoms: C_43  and  N_44 
REMARK   23  A    between atoms: N_44  and  C_45 
REMARK   24  A    between atoms: N_44  and  C_47 
REMARK   25  A    between atoms: C_69  and  O_70 
REMARK   26  A    between atoms: C_69  and  O_71 
ROOT
ATOM      1  N           0     138.537 134.789 144.564  0.00  0.00    -0.288 N 
ATOM      2  C           0     139.670 135.385 144.173  0.00  0.00     0.227 A 
ATOM      3  C           0     140.357 135.989 145.379  0.00  0.00     0.117 A 
ATOM      4  C           0     139.414 135.634 146.546  0.00  0.00     0.087 A 
ATOM      5  C           0     138.292 134.872 145.877  0.00  0.00     0.231 A 
ATOM      6  O           0     137.326 134.405 146.442  0.00  0.00    -0.273 OA
ATOM      7  O           0     140.081 135.435 143.033  0.00  0.00    -0.273 OA
ENDROOT
BRANCH   1   8
ATOM      8  C           0     137.638 134.107 143.630  0.00  0.00     0.144 C 
BRANCH   8   9
ATOM      9  C           0     136.286 134.823 143.608  0.00  0.00     0.123 C 
BRANCH   9  10
ATOM     10  C           0     135.402 134.194 142.562  0.00  0.00     0.219 C 
ATOM     11  N           0     134.447 134.929 141.957  0.00  0.00    -0.359 N 
ATOM     12  H           0     134.329 135.862 142.195  0.00  0.00     0.162 HD
ATOM     13  O           0     135.549 133.028 142.264  0.00  0.00    -0.274 OA
BRANCH  11  14
ATOM     14  C           0     133.588 134.318 140.940  0.00  0.00     0.142 C 
BRANCH  14  15
ATOM     15  C           0     133.104 135.395 139.966  0.00  0.00     0.144 C 
BRANCH  15  16
ATOM     16  N           0     133.922 135.359 138.752  0.00  0.00    -0.335 N 
ATOM     17  C           0     133.470 134.721 137.654  0.00  0.00     0.360 C 
ATOM     18  O           0     132.385 134.176 137.671  0.00  0.00    -0.239 OA
ATOM     19  H           0     134.789 135.795 138.738  0.00  0.00     0.164 HD
BRANCH  17  20
ATOM     20  O           0     134.222 134.688 136.537  0.00  0.00    -0.302 OA
BRANCH  20  21
ATOM     21  C           0     133.584 134.648 135.234  0.00  0.00     0.208 C 
BRANCH  21  22
ATOM     22  C           0     134.531 133.997 134.223  0.00  0.00     0.151 C 
ATOM     23  N           0     134.319 134.613 132.915  0.00  0.00    -0.218 N 
ATOM     24  C           0     133.130 134.357 132.255  0.00  0.00     0.672 C 
ATOM     25  H           0     134.994 135.186 132.520  0.00  0.00     0.178 HD
ATOM     26  N           0     132.605 135.207 131.417  0.00  0.00    -0.235 N 
ATOM     27  N           0     132.537 133.157 132.544  0.00  0.00    -0.183 N 
ATOM     28  H           0     133.050 136.050 131.239  0.00  0.00     0.174 HD
ATOM     29  H           0     131.772 134.993 130.968  0.00  0.00     0.174 HD
ATOM     30  C           0     133.098 132.076 133.357  0.00  0.00     0.217 C 
ATOM     31  C           0     131.189 132.697 132.162  0.00  0.00     0.150 C 
ATOM     32  C           0     134.280 132.502 134.212  0.00  0.00     0.180 C 
ATOM     33  C           0     131.928 131.558 134.210  0.00  0.00     0.209 C 
ATOM     34  N           0     133.616 130.992 132.506  0.00  0.00    -0.191 N 
ATOM     35  N           0     135.434 131.820 133.587  0.00  0.00    -0.216 N 
ATOM     36  C           0     134.942 130.803 132.807  0.00  0.00     0.670 C 
ATOM     37  H           0     136.369 132.050 133.706  0.00  0.00     0.178 HD
ATOM     38  N           0     135.647 129.785 132.402  0.00  0.00    -0.235 N 
ATOM     39  H           0     136.581 129.712 132.650  0.00  0.00     0.174 HD
ATOM     40  H           0     135.236 129.098 131.851  0.00  0.00     0.174 HD
ATOM     41  C           0     130.660 131.970 133.421  0.00  0.00     0.093 C 
ATOM     42  H           0     133.106 130.493 131.848  0.00  0.00     0.180 HD
BRANCH  33  43
ATOM     43  O           0     131.992 130.136 134.342  0.00  0.00    -0.362 OA
ATOM     44  H           0     131.927 129.939 135.287  0.00  0.00     0.213 HD
ENDBRANCH  33  43
BRANCH  33  45
ATOM     45  O           0     131.939 132.179 135.497  0.00  0.00    -0.362 OA
ATOM     46  H           0     132.121 133.118 135.352  0.00  0.00     0.213 HD
ENDBRANCH  33  45
ENDBRANCH  21  22
ENDBRANCH  20  21
ENDBRANCH  17  20
ENDBRANCH  15  16
ENDBRANCH  14  15
ENDBRANCH  11  14
ENDBRANCH   9  10
ENDBRANCH   8   9
ENDBRANCH   1   8
BRANCH   4  47
ATOM     47  C           0     138.877 136.903 147.210  0.00  0.00     0.014 C 
BRANCH  47  48
ATOM     48  C           0     139.949 137.490 148.131  0.00  0.00     0.001 C 
BRANCH  48  49
ATOM     49  C           0     139.344 138.627 148.957  0.00  0.00     0.000 C 
BRANCH  49  50
ATOM     50  C           0     138.572 138.042 150.141  0.00  0.00     0.000 C 
BRANCH  50  51
ATOM     51  C           0     139.421 136.967 150.822  0.00  0.00     0.000 C 
BRANCH  51  52
ATOM     52  C           0     138.551 135.745 151.125  0.00  0.00     0.009 C 
BRANCH  52  53
ATOM     53  C           0     138.682 134.730 149.987  0.00  0.00     0.103 C 
BRANCH  53  54
ATOM     54  C           0     139.255 133.444 150.525  0.00  0.00     0.217 C 
ATOM     55  N           0     140.567 133.177 150.375  0.00  0.00    -0.360 N 
ATOM     56  H           0     141.144 133.812 149.921  0.00  0.00     0.162 HD
ATOM     57  O           0     138.535 132.650 151.092  0.00  0.00    -0.274 OA
BRANCH  55  58
ATOM     58  C           0     141.125 131.927 150.898  0.00  0.00     0.142 C 
BRANCH  58  59
ATOM     59  C           0     140.991 130.828 149.842  0.00  0.00     0.142 C 
BRANCH  59  60
ATOM     60  N           0     139.715 130.979 149.138  0.00  0.00    -0.355 N 
ATOM     61  C           0     139.614 130.627 147.841  0.00  0.00     0.257 C 
ATOM     62  O           0     140.598 130.245 147.237  0.00  0.00    -0.267 OA
ATOM     63  H           0     138.942 131.333 149.606  0.00  0.00     0.162 HD
BRANCH  61  64
ATOM     64  C           0     138.310 130.706 147.154  0.00  0.00     0.104 C 
ATOM     65  C           0     138.244 131.119 145.734  0.00  0.00     0.298 C 
ATOM     66  O           0     137.030 131.022 145.128  0.00  0.00    -0.316 OA
ATOM     67  O           0     139.226 131.516 145.137  0.00  0.00    -0.259 OA
ATOM     68  C           0     135.875 131.386 145.942  0.00  0.00     0.200 C 
ATOM     69  C           0     135.823 130.453 147.162  0.00  0.00     0.036 A 
ATOM     70  C           0     137.183 130.408 147.819  0.00  0.00     0.016 C 
ATOM     71  C           0     134.904 130.975 148.077  0.00  0.00    -0.005 A 
ATOM     72  C           0     135.498 129.168 146.722  0.00  0.00    -0.005 A 
ATOM     73  C           0     133.813 130.339 148.511  0.00  0.00     0.026 A 
ATOM     74  C           0     133.522 129.039 148.039  0.00  0.00     0.029 A 
ATOM     75  C           0     134.426 128.474 147.112  0.00  0.00     0.026 A 
BRANCH  74  76
ATOM     76  N           0     132.396 128.347 148.468  0.00  0.00    -0.382 N 
BRANCH  76  77
ATOM     77  C           0     131.933 128.487 149.851  0.00  0.00     0.118 C 
ATOM     78  C           0     133.138 128.630 150.781  0.00  0.00     0.026 C 
ENDBRANCH  76  77
BRANCH  76  79
ATOM     79  C           0     131.671 127.480 147.537  0.00  0.00     0.118 C 
ATOM     80  C           0     132.331 126.099 147.508  0.00  0.00     0.026 C 
ENDBRANCH  76  79
ENDBRANCH  74  76
ENDBRANCH  61  64
ENDBRANCH  59  60
ENDBRANCH  58  59
ENDBRANCH  55  58
ENDBRANCH  53  54
ENDBRANCH  52  53
ENDBRANCH  51  52
ENDBRANCH  50  51
ENDBRANCH  49  50
ENDBRANCH  48  49
ENDBRANCH  47  48
ENDBRANCH   4  47
TORSDOF 26
ENDMDL
MODEL 9
REMARK VINA RESULT:      -5.7      2.684     13.621
REMARK  26 active torsions:
REMARK  status: ('A' for Active; 'I' for Inactive)
REMARK    1  A    between atoms: C_6  and  C_7 
REMARK    2  A    between atoms: C_7  and  O_8 
REMARK    3  A    between atoms: O_8  and  C_9 
REMARK       I    between atoms: C_9  and  N_10 
REMARK    4  A    between atoms: N_10  and  C_11 
REMARK    5  A    between atoms: C_11  and  C_12 
REMARK    6  A    between atoms: C_12  and  N_13 
REMARK       I    between atoms: N_13  and  C_14 
REMARK    7  A    between atoms: C_14  and  C_15 
REMARK    8  A    between atoms: C_15  and  C_16 
REMARK    9  A    between atoms: C_16  and  N_17 
REMARK   10  A    between atoms: C_20  and  C_21 
REMARK   11  A    between atoms: C_21  and  C_22 
REMARK   12  A    between atoms: C_22  and  C_23 
REMARK   13  A    between atoms: C_23  and  C_24 
REMARK   14  A    between atoms: C_24  and  C_25 
REMARK   15  A    between atoms: C_25  and  C_26 
REMARK   16  A    between atoms: C_26  and  C_27 
REMARK   17  A    between atoms: C_27  and  C_28 
REMARK       I    between atoms: C_28  and  N_29 
REMARK   18  A    between atoms: N_29  and  C_30 
REMARK   19  A    between atoms: C_30  and  C_31 
REMARK   20  A    between atoms: C_31  and  N_32 
REMARK       I    between atoms: N_32  and  C_33 
REMARK   21  A    between atoms: C_33  and  C_34 
REMARK   22  A    between atoms: C_43  and  N_44 
REMARK   23  A    between atoms: N_44  and  C_45 
REMARK   24  A    between atoms: N_44  and  C_47 
REMARK   25  A    between atoms: C_69  and  O_70 
REMARK   26  A    between atoms: C_69  and  O_71 
ROOT
ATOM      1  N           0     138.261 135.020 144.416  0.00  0.00    -0.288 N 
ATOM      2  C           0     139.450 135.613 144.258  0.00  0.00     0.227 A 
ATOM      3  C           0     140.094 135.807 145.615  0.00  0.00     0.117 A 
ATOM      4  C           0     139.059 135.215 146.593  0.00  0.00     0.087 A 
ATOM      5  C           0     137.937 134.755 145.687  0.00  0.00     0.231 A 
ATOM      6  O           0     136.911 134.225 146.055  0.00  0.00    -0.273 OA
ATOM      7  O           0     139.936 135.945 143.198  0.00  0.00    -0.273 OA
ENDROOT
BRANCH   1   8
ATOM      8  C           0     137.383 134.693 143.289  0.00  0.00     0.144 C 
BRANCH   8   9
ATOM      9  C           0     136.043 134.179 143.819  0.00  0.00     0.123 C 
BRANCH   9  10
ATOM     10  C           0     135.360 133.364 142.751  0.00  0.00     0.219 C 
ATOM     11  N           0     134.136 132.848 142.978  0.00  0.00    -0.359 N 
ATOM     12  H           0     133.694 133.001 143.828  0.00  0.00     0.162 HD
ATOM     13  O           0     135.911 133.172 141.688  0.00  0.00    -0.274 OA
BRANCH  11  14
ATOM     14  C           0     133.471 132.056 141.940  0.00  0.00     0.142 C 
BRANCH  14  15
ATOM     15  C           0     132.335 132.874 141.323  0.00  0.00     0.144 C 
BRANCH  15  16
ATOM     16  N           0     132.896 133.952 140.506  0.00  0.00    -0.335 N 
ATOM     17  C           0     132.552 134.061 139.206  0.00  0.00     0.360 C 
ATOM     18  O           0     131.777 133.266 138.714  0.00  0.00    -0.239 OA
ATOM     19  H           0     133.515 134.587 140.899  0.00  0.00     0.164 HD
BRANCH  17  20
ATOM     20  O           0     133.068 135.051 138.455  0.00  0.00    -0.302 OA
BRANCH  20  21
ATOM     21  C           0     133.444 134.796 137.076  0.00  0.00     0.208 C 
BRANCH  21  22
ATOM     22  C           0     132.410 135.426 136.140  0.00  0.00     0.151 C 
ATOM     23  N           0     131.195 134.617 136.168  0.00  0.00    -0.218 N 
ATOM     24  C           0     131.231 133.359 135.592  0.00  0.00     0.672 C 
ATOM     25  H           0     130.383 134.953 136.578  0.00  0.00     0.178 HD
ATOM     26  N           0     130.465 132.387 136.000  0.00  0.00    -0.235 N 
ATOM     27  N           0     132.129 133.199 134.570  0.00  0.00    -0.183 N 
ATOM     28  H           0     129.843 132.534 136.729  0.00  0.00     0.174 HD
ATOM     29  H           0     130.513 131.518 135.570  0.00  0.00     0.174 HD
ATOM     30  C           0     132.937 134.247 133.943  0.00  0.00     0.217 C 
ATOM     31  C           0     132.536 131.946 133.909  0.00  0.00     0.150 C 
ATOM     32  C           0     133.010 135.533 134.752  0.00  0.00     0.180 C 
ATOM     33  C           0     134.326 133.621 133.732  0.00  0.00     0.209 C 
ATOM     34  N           0     132.366 134.647 132.646  0.00  0.00    -0.191 N 
ATOM     35  N           0     132.223 136.498 133.955  0.00  0.00    -0.216 N 
ATOM     36  C           0     132.118 135.996 132.681  0.00  0.00     0.670 C 
ATOM     37  H           0     131.849 137.334 134.274  0.00  0.00     0.178 HD
ATOM     38  N           0     131.821 136.714 131.634  0.00  0.00    -0.235 N 
ATOM     39  H           0     131.656 137.665 131.728  0.00  0.00     0.174 HD
ATOM     40  H           0     131.763 136.295 130.760  0.00  0.00     0.174 HD
ATOM     41  C           0     134.063 132.094 133.711  0.00  0.00     0.093 C 
ATOM     42  H           0     132.197 134.058 131.893  0.00  0.00     0.180 HD
BRANCH  33  43
ATOM     43  O           0     134.887 134.047 132.489  0.00  0.00    -0.362 OA
ATOM     44  H           0     134.311 133.707 131.791  0.00  0.00     0.213 HD
ENDBRANCH  33  43
BRANCH  33  45
ATOM     45  O           0     135.194 133.963 134.814  0.00  0.00    -0.362 OA
ATOM     46  H           0     135.562 134.835 134.613  0.00  0.00     0.213 HD
ENDBRANCH  33  45
ENDBRANCH  21  22
ENDBRANCH  20  21
ENDBRANCH  17  20
ENDBRANCH  15  16
ENDBRANCH  14  15
ENDBRANCH  11  14
ENDBRANCH   9  10
ENDBRANCH   8   9
ENDBRANCH   1   8
BRANCH   4  47
ATOM     47  C           0     138.558 136.289 147.561  0.00  0.00     0.014 C 
BRANCH  47  48
ATOM     48  C           0     139.749 136.913 148.291  0.00  0.00     0.001 C 
BRANCH  48  49
ATOM     49  C           0     139.315 138.228 148.942  0.00  0.00     0.000 C 
BRANCH  49  50
ATOM     50  C           0     138.807 137.952 150.359  0.00  0.00     0.000 C 
BRANCH  50  51
ATOM     51  C           0     139.275 136.566 150.807  0.00  0.00     0.000 C 
BRANCH  51  52
ATOM     52  C           0     138.058 135.695 151.125  0.00  0.00     0.009 C 
BRANCH  52  53
ATOM     53  C           0     137.937 134.585 150.078  0.00  0.00     0.103 C 
BRANCH  53  54
ATOM     54  C           0     138.893 133.470 150.417  0.00  0.00     0.217 C 
ATOM     55  N           0     140.157 133.501 149.951  0.00  0.00    -0.360 N 
ATOM     56  H           0     140.452 134.241 149.397  0.00  0.00     0.162 HD
ATOM     57  O           0     138.525 132.544 151.109  0.00  0.00    -0.274 OA
BRANCH  55  58
ATOM     58  C           0     141.086 132.417 150.280  0.00  0.00     0.142 C 
BRANCH  58  59
ATOM     59  C           0     140.931 131.286 149.261  0.00  0.00     0.142 C 
BRANCH  59  60
ATOM     60  N           0     139.543 131.233 148.796  0.00  0.00    -0.355 N 
ATOM     61  C           0     139.275 131.148 147.478  0.00  0.00     0.257 C 
ATOM     62  O           0     140.184 131.180 146.671  0.00  0.00    -0.267 OA
ATOM     63  H           0     138.815 131.260 149.438  0.00  0.00     0.162 HD
BRANCH  61  64
ATOM     64  C           0     137.880 131.017 147.015  0.00  0.00     0.104 C 
ATOM     65  C           0     137.565 131.119 145.572  0.00  0.00     0.298 C 
ATOM     66  O           0     136.286 130.837 145.207  0.00  0.00    -0.316 OA
ATOM     67  O           0     138.409 131.428 144.754  0.00  0.00    -0.259 OA
ATOM     68  C           0     135.242 131.307 146.112  0.00  0.00     0.200 C 
ATOM     69  C           0     135.452 130.650 147.486  0.00  0.00     0.036 A 
ATOM     70  C           0     136.895 130.811 147.903  0.00  0.00     0.016 C 
ATOM     71  C           0     134.643 131.307 148.417  0.00  0.00    -0.005 A 
ATOM     72  C           0     135.171 129.287 147.371  0.00  0.00    -0.005 A 
ATOM     73  C           0     133.687 130.724 149.144  0.00  0.00     0.026 A 
ATOM     74  C           0     133.435 129.342 148.996  0.00  0.00     0.029 A 
ATOM     75  C           0     134.231 128.639 148.064  0.00  0.00     0.026 A 
BRANCH  74  76
ATOM     76  N           0     132.448 128.701 149.735  0.00  0.00    -0.382 N 
BRANCH  76  77
ATOM     77  C           0     131.702 127.585 149.149  0.00  0.00     0.118 C 
ATOM     78  C           0     131.538 127.814 147.645  0.00  0.00     0.026 C 
ENDBRANCH  76  77
BRANCH  76  79
ATOM     79  C           0     132.154 129.142 151.101  0.00  0.00     0.118 C 
ATOM     80  C           0     131.046 130.196 151.069  0.00  0.00     0.026 C 
ENDBRANCH  76  79
ENDBRANCH  74  76
ENDBRANCH  61  64
ENDBRANCH  59  60
ENDBRANCH  58  59
ENDBRANCH  55  58
ENDBRANCH  53  54
ENDBRANCH  52  53
ENDBRANCH  51  52
ENDBRANCH  50  51
ENDBRANCH  49  50
ENDBRANCH  48  49
ENDBRANCH  47  48
ENDBRANCH   4  47
TORSDOF 26
ENDMDL
