# created with PyMOL 2.3.4
@<TRIPOS>MOLECULE
ligand_out_0001
80 85 1                 
SMALL
USER_CHARGES
@<TRIPOS>ATOM
1	   N	136.257	130.056	149.204	N.pl3	1	UNK0	-0.288	
2	   N	139.785	130.490	148.729	N.pl3	1	UNK0	-0.359	
3	   N	141.007	132.246	146.636	N.pl3	1	UNK0	-0.335	
4	   N	140.517	135.386	148.344	N.3	1	UNK0	-0.218	
5	   N	140.749	133.636	149.899	N.3	1	UNK0	-0.235	
6	   N	138.785	134.907	149.830	N.3	1	UNK0	-0.183	
7	   N	137.986	137.106	150.445	N.3	1	UNK0	-0.191	
8	   N	138.957	138.029	148.610	N.3	1	UNK0	-0.216	
9	   N	138.369	139.439	150.415	N.3	1	UNK0	-0.235	
10	   N	134.010	134.942	139.343	N.pl3	1	UNK0	-0.360	
11	   N	134.718	134.631	135.863	N.pl3	1	UNK0	-0.355	
12	   N	132.790	127.975	132.190	N.3	1	UNK0	-0.382	
13	   C	135.121	130.549	149.710	C.2	1	UNK0	0.227	
14	   C	134.314	131.186	148.598	C.3	1	UNK0	0.117	
15	   C	135.193	130.971	147.349	C.3	1	UNK0	0.087	
16	   C	136.404	130.242	147.887	C.2	1	UNK0	0.231	
17	   C	137.260	129.374	150.025	C.3	1	UNK0	0.144	
18	   C	138.209	130.407	150.635	C.3	1	UNK0	0.123	
19	   C	139.583	130.241	150.039	C.2	1	UNK0	0.219	
20	   C	141.120	130.329	148.150	C.3	1	UNK0	0.142	
21	   C	141.101	130.787	146.690	C.3	1	UNK0	0.144	
22	   C	140.049	132.833	145.891	C.2	1	UNK0	0.360	
23	   C	138.921	134.863	146.584	C.2	1	UNK0	0.208	
24	   C	139.546	135.977	147.427	C.3	1	UNK0	0.151	
25	   C	140.044	134.603	149.383	C.3	1	UNK0	0.672	
26	   C	137.963	136.047	149.423	C.3	1	UNK0	0.217	
27	   C	137.947	134.138	150.768	C.3	1	UNK0	0.150	
28	   C	138.440	136.723	148.147	C.3	1	UNK0	0.180	
29	   C	136.536	135.491	149.278	C.3	1	UNK0	0.209	
30	   C	138.433	138.263	149.858	C.3	1	UNK0	0.670	
31	   C	136.523	134.223	150.169	C.3	1	UNK0	0.093	
32	   C	135.603	132.315	146.743	C.3	1	UNK0	0.014	
33	   C	135.754	132.166	145.227	C.3	1	UNK0	0.001	
34	   C	135.036	130.896	144.765	C.3	1	UNK0	0.000	
35	   C	134.985	130.868	143.237	C.3	1	UNK0	0.000	
36	   C	135.048	132.299	142.698	C.3	1	UNK0	0.000	
37	   C	133.718	132.651	142.029	C.3	1	UNK0	0.009	
38	   C	133.710	134.137	141.662	C.3	1	UNK0	0.103	
39	   C	133.237	134.300	140.240	C.2	1	UNK0	0.217	
40	   C	133.550	135.101	137.961	C.3	1	UNK0	0.142	
41	   C	134.738	135.466	137.067	C.3	1	UNK0	0.142	
42	   C	133.995	135.010	134.792	C.2	1	UNK0	0.257	
43	   C	134.037	134.209	133.552	C.3	1	UNK0	0.104	
44	   C	134.768	134.715	132.368	C.2	1	UNK0	0.298	
45	   C	133.729	133.024	131.030	C.2	1	UNK0	0.200	
46	   C	133.434	132.154	132.262	C.3	1	UNK0	0.036	
47	   C	133.408	133.025	133.496	C.3	1	UNK0	0.016	
48	   C	132.172	131.575	132.100	C.3	1	UNK0	-0.005	
49	   C	134.461	131.218	132.398	C.3	1	UNK0	-0.005	
50	   C	131.932	130.262	132.073	C.3	1	UNK0	0.026	
51	   C	133.001	129.349	132.214	C.3	1	UNK0	0.029	
52	   C	134.295	129.893	132.380	C.3	1	UNK0	0.026	
53	   C	131.508	127.424	132.636	C.3	1	UNK0	0.118	
54	   C	130.723	126.914	131.426	C.3	1	UNK0	0.026	
55	   C	133.848	127.080	131.718	C.3	1	UNK0	0.118	
56	   C	134.429	126.307	132.903	C.3	1	UNK0	0.026	
57	   O	137.354	129.878	147.227	O.2	1	UNK0	-0.273	
58	   O	134.789	130.496	150.875	O.2	1	UNK0	-0.273	
59	   O	140.509	129.884	150.737	O.2	1	UNK0	-0.274	
60	   O	139.263	132.150	145.264	O.co2	1	UNK0	-0.239	
61	   O	139.961	134.176	145.842	O.2	1	UNK0	-0.302	
62	   O	135.576	136.440	149.748	O.2	1	UNK0	-0.362	
63	   O	136.272	135.148	147.917	O.2	1	UNK0	-0.362	
64	   O	132.160	133.854	139.904	O.2	1	UNK0	-0.274	
65	   O	133.307	136.011	134.846	O.2	1	UNK0	-0.267	
66	   O	134.892	133.859	131.318	O.2	1	UNK0	-0.316	
67	   O	135.241	135.834	132.338	O.co2	1	UNK0	-0.259	
68	   H	139.044	130.775	148.171	 H	1	UNK0	0.162	
69	   H	141.634	132.792	147.137	 H	1	UNK0	0.164	
70	   H	141.467	135.537	148.229	 H	1	UNK0	0.178	
71	   H	141.635	133.445	149.555	 H	1	UNK0	0.174	
72	   H	140.388	133.109	150.630	 H	1	UNK0	0.174	
73	   H	139.557	138.614	148.122	 H	1	UNK0	0.178	
74	   H	138.703	140.219	149.946	 H	1	UNK0	0.174	
75	   H	137.985	139.536	151.302	 H	1	UNK0	0.174	
76	   H	137.727	137.004	151.375	 H	1	UNK0	0.180	
77	   H	135.232	136.098	150.585	 H	1	UNK0	0.213	
78	   H	135.310	135.117	147.818	 H	1	UNK0	0.213	
79	   H	134.871	135.299	139.611	 H	1	UNK0	0.162	
80	   H	135.226	133.804	135.838	 H	1	UNK0	0.162	
@<TRIPOS>BOND
1 1 13 1
2 1 16 1
3 1 17 1
4 2 20 1
5 2 68 1
6 3 22 1
7 3 69 1
8 4 25 1
9 4 70 1
10 5 71 1
11 5 72 1
12 6 26 1
13 6 27 1
14 7 30 1
15 7 76 1
16 8 30 1
17 8 73 1
18 9 74 1
19 9 75 1
20 10 40 1
21 10 79 1
22 11 42 1
23 11 80 1
24 12 53 1
25 12 55 1
26 13 14 1
27 13 58 2
28 14 15 1
29 15 16 1
30 15 32 1
31 16 57 2
32 17 18 1
33 18 19 1
34 2 19 1
35 19 59 2
36 20 21 1
37 3 21 1
38 22 60 2
39 22 61 2
40 23 24 1
41 4 24 1
42 24 28 1
43 5 25 1
44 6 25 1
45 7 26 1
46 26 28 1
47 26 29 1
48 27 31 1
49 8 28 1
50 29 31 1
51 29 62 2
52 29 63 2
53 9 30 1
54 32 33 1
55 33 34 1
56 34 35 1
57 35 36 1
58 36 37 1
59 37 38 1
60 38 39 1
61 10 39 1
62 39 64 2
63 40 41 1
64 11 41 1
65 42 43 1
66 42 65 2
67 43 44 1
68 43 47 1
69 44 66 2
70 44 67 2
71 45 46 1
72 46 47 1
73 46 48 1
74 46 49 1
75 48 50 1
76 49 52 1
77 50 51 1
78 12 51 1
79 51 52 1
80 53 54 1
81 55 56 1
82 23 61 2
83 62 77 1
84 63 78 1
85 45 66 2
@<TRIPOS>SUBSTRUCTURE
1	UNK0	1	GROUP	1 ****	UNK
