MODEL 1
REMARK VINA RESULT:      -7.0      0.000      0.000
REMARK  5 active torsions:
REMARK  status: ('A' for Active; 'I' for Inactive)
REMARK    1  A    between atoms: C_6  and  C_7 
REMARK    2  A    between atoms: C_7  and  O_8 
REMARK    3  A    between atoms: O_8  and  C_9 
REMARK       I    between atoms: C_9  and  N_10 
REMARK    4  A    between atoms: C_24  and  O_25 
REMARK    5  A    between atoms: C_24  and  O_26 
ROOT
ATOM      1  N           0     130.691 131.698 135.386  0.00  0.00    -0.235 N 
ATOM      2  H           0     129.884 132.071 135.774  0.00  0.00     0.174 HD
ATOM      3  H           0     131.558 131.937 135.748  0.00  0.00     0.174 HD
ATOM      4  C           0     130.609 130.871 134.382  0.00  0.00     0.672 C 
ATOM      5  N           0     129.396 130.496 133.835  0.00  0.00    -0.218 N 
ATOM      6  C           0     129.353 130.131 132.422  0.00  0.00     0.151 C 
ATOM      7  C           0     130.402 129.098 132.056  0.00  0.00     0.182 C 
ATOM      8  N           0     129.946 127.765 132.509  0.00  0.00    -0.211 N 
ATOM      9  C           0     128.578 127.247 132.436  0.00  0.00     0.169 C 
ATOM     10  C           0     131.040 127.101 133.009  0.00  0.00     0.672 C 
ATOM     11  N           0     131.105 125.808 133.162  0.00  0.00    -0.235 N 
ATOM     12  H           0     130.350 125.252 132.915  0.00  0.00     0.174 HD
ATOM     13  H           0     131.909 125.402 133.522  0.00  0.00     0.174 HD
ATOM     14  C           0     131.734 129.286 132.762  0.00  0.00     0.217 C 
ATOM     15  N           0     132.057 127.968 133.329  0.00  0.00    -0.191 N 
ATOM     16  N           0     131.723 130.321 133.796  0.00  0.00    -0.183 N 
ATOM     17  C           0     133.127 130.690 134.034  0.00  0.00     0.150 C 
ATOM     18  C           0     133.901 130.346 132.744  0.00  0.00     0.093 C 
ATOM     19  C           0     132.845 129.727 131.788  0.00  0.00     0.209 C 
ATOM     20  H           0     128.591 130.475 134.378  0.00  0.00     0.178 HD
ATOM     21  H           0     132.852 127.747 133.838  0.00  0.00     0.180 HD
ENDROOT
BRANCH   6  22
ATOM     22  C           0     129.587 131.387 131.581  0.00  0.00     0.208 C 
BRANCH  22  23
ATOM     23  O           0     128.312 131.898 131.110  0.00  0.00    -0.302 OA
BRANCH  23  24
ATOM     24  C           0     127.800 133.025 131.643  0.00  0.00     0.358 C 
ATOM     25  N           0     128.507 133.718 132.558  0.00  0.00    -0.346 N 
ATOM     26  H           0     129.383 133.406 132.833  0.00  0.00     0.161 HD
ATOM     27  H           0     128.139 134.530 132.941  0.00  0.00     0.161 HD
ATOM     28  O           0     126.704 133.417 131.298  0.00  0.00    -0.239 OA
ENDBRANCH  23  24
ENDBRANCH  22  23
ENDBRANCH   6  22
BRANCH  19  29
ATOM     29  O           0     133.389 128.609 131.086  0.00  0.00    -0.362 OA
ATOM     30  H           0     132.643 128.136 130.691  0.00  0.00     0.213 HD
ENDBRANCH  19  29
BRANCH  19  31
ATOM     31  O           0     132.351 130.709 130.875  0.00  0.00    -0.362 OA
ATOM     32  H           0     132.156 130.248 130.047  0.00  0.00     0.213 HD
ENDBRANCH  19  31
TORSDOF 5
ENDMDL
MODEL 2
REMARK VINA RESULT:      -6.7      3.053      4.943
REMARK  5 active torsions:
REMARK  status: ('A' for Active; 'I' for Inactive)
REMARK    1  A    between atoms: C_6  and  C_7 
REMARK    2  A    between atoms: C_7  and  O_8 
REMARK    3  A    between atoms: O_8  and  C_9 
REMARK       I    between atoms: C_9  and  N_10 
REMARK    4  A    between atoms: C_24  and  O_25 
REMARK    5  A    between atoms: C_24  and  O_26 
ROOT
ATOM      1  N           0     129.898 134.663 131.942  0.00  0.00    -0.235 N 
ATOM      2  H           0     130.081 135.602 132.099  0.00  0.00     0.174 HD
ATOM      3  H           0     129.168 134.401 131.359  0.00  0.00     0.174 HD
ATOM      4  C           0     130.637 133.751 132.510  0.00  0.00     0.672 C 
ATOM      5  N           0     131.691 134.074 133.344  0.00  0.00    -0.218 N 
ATOM      6  C           0     132.053 133.135 134.403  0.00  0.00     0.151 C 
ATOM      7  C           0     132.245 131.722 133.886  0.00  0.00     0.182 C 
ATOM      8  N           0     133.564 131.624 133.222  0.00  0.00    -0.211 N 
ATOM      9  C           0     134.810 132.245 133.677  0.00  0.00     0.169 C 
ATOM     10  C           0     133.406 130.846 132.101  0.00  0.00     0.672 C 
ATOM     11  N           0     134.386 130.252 131.478  0.00  0.00    -0.235 N 
ATOM     12  H           0     135.295 130.347 131.804  0.00  0.00     0.174 HD
ATOM     13  H           0     134.206 129.715 130.691  0.00  0.00     0.174 HD
ATOM     14  C           0     131.261 131.317 132.802  0.00  0.00     0.217 C 
ATOM     15  N           0     132.090 130.769 131.717  0.00  0.00    -0.191 N 
ATOM     16  N           0     130.413 132.408 132.323  0.00  0.00    -0.183 N 
ATOM     17  C           0     129.257 131.783 131.662  0.00  0.00     0.150 C 
ATOM     18  C           0     129.102 130.377 132.278  0.00  0.00     0.093 C 
ATOM     19  C           0     130.267 130.247 133.297  0.00  0.00     0.209 C 
ATOM     20  H           0     132.180 134.905 133.228  0.00  0.00     0.178 HD
ATOM     21  H           0     131.763 130.413 130.877  0.00  0.00     0.180 HD
ENDROOT
BRANCH   6  22
ATOM     22  C           0     130.943 133.127 135.456  0.00  0.00     0.208 C 
BRANCH  22  23
ATOM     23  O           0     131.250 132.137 136.473  0.00  0.00    -0.302 OA
BRANCH  23  24
ATOM     24  C           0     130.479 132.042 137.573  0.00  0.00     0.358 C 
ATOM     25  N           0     130.818 132.711 138.693  0.00  0.00    -0.346 N 
ATOM     26  H           0     131.618 133.261 138.706  0.00  0.00     0.161 HD
ATOM     27  H           0     130.263 132.644 139.485  0.00  0.00     0.161 HD
ATOM     28  O           0     129.477 131.355 137.556  0.00  0.00    -0.239 OA
ENDBRANCH  23  24
ENDBRANCH  22  23
ENDBRANCH   6  22
BRANCH  19  29
ATOM     29  O           0     130.845 128.942 133.243  0.00  0.00    -0.362 OA
ATOM     30  H           0     131.726 129.042 132.858  0.00  0.00     0.213 HD
ENDBRANCH  19  29
BRANCH  19  31
ATOM     31  O           0     129.820 130.551 134.619  0.00  0.00    -0.362 OA
ATOM     32  H           0     130.278 129.942 135.216  0.00  0.00     0.213 HD
ENDBRANCH  19  31
TORSDOF 5
ENDMDL
MODEL 3
REMARK VINA RESULT:      -6.7      4.232      6.202
REMARK  5 active torsions:
REMARK  status: ('A' for Active; 'I' for Inactive)
REMARK    1  A    between atoms: C_6  and  C_7 
REMARK    2  A    between atoms: C_7  and  O_8 
REMARK    3  A    between atoms: O_8  and  C_9 
REMARK       I    between atoms: C_9  and  N_10 
REMARK    4  A    between atoms: C_24  and  O_25 
REMARK    5  A    between atoms: C_24  and  O_26 
ROOT
ATOM      1  N           0     132.880 134.953 130.876  0.00  0.00    -0.235 N 
ATOM      2  H           0     133.671 135.186 130.366  0.00  0.00     0.174 HD
ATOM      3  H           0     132.012 135.293 130.608  0.00  0.00     0.174 HD
ATOM      4  C           0     132.983 134.177 131.919  0.00  0.00     0.672 C 
ATOM      5  N           0     134.197 133.663 132.336  0.00  0.00    -0.218 N 
ATOM      6  C           0     134.377 133.373 133.756  0.00  0.00     0.151 C 
ATOM      7  C           0     133.258 132.520 134.322  0.00  0.00     0.182 C 
ATOM      8  N           0     133.466 131.113 133.912  0.00  0.00    -0.211 N 
ATOM      9  C           0     134.749 130.411 133.852  0.00  0.00     0.169 C 
ATOM     10  C           0     132.236 130.586 133.600  0.00  0.00     0.672 C 
ATOM     11  N           0     131.978 129.309 133.549  0.00  0.00    -0.235 N 
ATOM     12  H           0     132.679 128.666 133.740  0.00  0.00     0.174 HD
ATOM     13  H           0     131.087 129.003 133.322  0.00  0.00     0.174 HD
ATOM     14  C           0     131.881 132.858 133.775  0.00  0.00     0.217 C 
ATOM     15  N           0     131.312 131.570 133.348  0.00  0.00    -0.191 N 
ATOM     16  N           0     131.893 133.824 132.677  0.00  0.00    -0.183 N 
ATOM     17  C           0     130.532 134.376 132.589  0.00  0.00     0.150 C 
ATOM     18  C           0     129.897 134.214 133.986  0.00  0.00     0.093 C 
ATOM     19  C           0     130.978 133.504 134.846  0.00  0.00     0.209 C 
ATOM     20  H           0     134.912 133.499 131.701  0.00  0.00     0.178 HD
ATOM     21  H           0     130.434 131.438 132.959  0.00  0.00     0.180 HD
ENDROOT
BRANCH   6  22
ATOM     22  C           0     134.428 134.692 134.528  0.00  0.00     0.208 C 
BRANCH  22  23
ATOM     23  O           0     134.601 134.418 135.943  0.00  0.00    -0.302 OA
BRANCH  23  24
ATOM     24  C           0     135.006 135.398 136.774  0.00  0.00     0.358 C 
ATOM     25  N           0     134.499 135.476 138.020  0.00  0.00    -0.346 N 
ATOM     26  H           0     133.843 134.827 138.319  0.00  0.00     0.161 HD
ATOM     27  H           0     134.791 136.181 138.619  0.00  0.00     0.161 HD
ATOM     28  O           0     135.829 136.210 136.400  0.00  0.00    -0.239 OA
ENDBRANCH  23  24
ENDBRANCH  22  23
ENDBRANCH   6  22
BRANCH  19  29
ATOM     29  O           0     130.388 132.513 135.688  0.00  0.00    -0.362 OA
ATOM     30  H           0     130.904 131.704 135.574  0.00  0.00     0.213 HD
ENDBRANCH  19  29
BRANCH  19  31
ATOM     31  O           0     131.717 134.453 135.617  0.00  0.00    -0.362 OA
ATOM     32  H           0     132.163 133.957 136.318  0.00  0.00     0.213 HD
ENDBRANCH  19  31
TORSDOF 5
ENDMDL
MODEL 4
REMARK VINA RESULT:      -6.6     13.608     15.868
REMARK  5 active torsions:
REMARK  status: ('A' for Active; 'I' for Inactive)
REMARK    1  A    between atoms: C_6  and  C_7 
REMARK    2  A    between atoms: C_7  and  O_8 
REMARK    3  A    between atoms: O_8  and  C_9 
REMARK       I    between atoms: C_9  and  N_10 
REMARK    4  A    between atoms: C_24  and  O_25 
REMARK    5  A    between atoms: C_24  and  O_26 
ROOT
ATOM      1  N           0     135.876 133.964 148.535  0.00  0.00    -0.235 N 
ATOM      2  H           0     136.296 134.836 148.596  0.00  0.00     0.174 HD
ATOM      3  H           0     135.237 133.685 149.210  0.00  0.00     0.174 HD
ATOM      4  C           0     136.164 133.169 147.543  0.00  0.00     0.672 C 
ATOM      5  N           0     137.063 133.524 146.554  0.00  0.00    -0.218 N 
ATOM      6  C           0     137.812 132.465 145.882  0.00  0.00     0.151 C 
ATOM      7  C           0     136.914 131.359 145.362  0.00  0.00     0.182 C 
ATOM      8  N           0     136.258 131.813 144.116  0.00  0.00    -0.211 N 
ATOM      9  C           0     136.880 132.600 143.048  0.00  0.00     0.169 C 
ATOM     10  C           0     134.961 131.363 144.142  0.00  0.00     0.672 C 
ATOM     11  N           0     134.201 131.256 143.087  0.00  0.00    -0.235 N 
ATOM     12  H           0     134.546 131.503 142.215  0.00  0.00     0.174 HD
ATOM     13  H           0     133.292 130.930 143.176  0.00  0.00     0.174 HD
ATOM     14  C           0     135.753 131.016 146.279  0.00  0.00     0.217 C 
ATOM     15  N           0     134.562 131.039 145.415  0.00  0.00    -0.191 N 
ATOM     16  N           0     135.600 131.922 147.417  0.00  0.00    -0.183 N 
ATOM     17  C           0     134.780 131.213 148.412  0.00  0.00     0.150 C 
ATOM     18  C           0     134.968 129.705 148.146  0.00  0.00     0.093 C 
ATOM     19  C           0     135.914 129.622 146.918  0.00  0.00     0.209 C 
ATOM     20  H           0     137.193 134.455 146.312  0.00  0.00     0.178 HD
ATOM     21  H           0     133.653 130.853 145.696  0.00  0.00     0.180 HD
ENDROOT
BRANCH   6  22
ATOM     22  C           0     138.811 131.863 146.872  0.00  0.00     0.208 C 
BRANCH  22  23
ATOM     23  O           0     139.593 130.837 146.205  0.00  0.00    -0.302 OA
BRANCH  23  24
ATOM     24  C           0     140.621 130.250 146.847  0.00  0.00     0.358 C 
ATOM     25  N           0     141.121 129.084 146.392  0.00  0.00    -0.346 N 
ATOM     26  H           0     140.741 128.668 145.603  0.00  0.00     0.161 HD
ATOM     27  H           0     141.862 128.662 146.854  0.00  0.00     0.161 HD
ATOM     28  O           0     141.098 130.772 147.835  0.00  0.00    -0.239 OA
ENDBRANCH  23  24
ENDBRANCH  22  23
ENDBRANCH   6  22
BRANCH  19  29
ATOM     29  O           0     135.494 128.593 146.021  0.00  0.00    -0.362 OA
ATOM     30  H           0     135.580 128.949 145.126  0.00  0.00     0.213 HD
ENDBRANCH  19  29
BRANCH  19  31
ATOM     31  O           0     137.266 129.414 147.332  0.00  0.00    -0.362 OA
ATOM     32  H           0     137.776 129.220 146.534  0.00  0.00     0.213 HD
ENDBRANCH  19  31
TORSDOF 5
ENDMDL
MODEL 5
REMARK VINA RESULT:      -6.6     14.516     16.108
REMARK  5 active torsions:
REMARK  status: ('A' for Active; 'I' for Inactive)
REMARK    1  A    between atoms: C_6  and  C_7 
REMARK    2  A    between atoms: C_7  and  O_8 
REMARK    3  A    between atoms: O_8  and  C_9 
REMARK       I    between atoms: C_9  and  N_10 
REMARK    4  A    between atoms: C_24  and  O_25 
REMARK    5  A    between atoms: C_24  and  O_26 
ROOT
ATOM      1  N           0     134.124 131.889 149.458  0.00  0.00    -0.235 N 
ATOM      2  H           0     133.629 131.550 150.219  0.00  0.00     0.174 HD
ATOM      3  H           0     134.012 132.811 149.177  0.00  0.00     0.174 HD
ATOM      4  C           0     134.946 131.107 148.814  0.00  0.00     0.672 C 
ATOM      5  N           0     135.144 129.789 149.180  0.00  0.00    -0.218 N 
ATOM      6  C           0     135.519 128.830 148.145  0.00  0.00     0.151 C 
ATOM      7  C           0     136.704 129.298 147.321  0.00  0.00     0.182 C 
ATOM      8  N           0     137.946 129.088 148.096  0.00  0.00    -0.211 N 
ATOM      9  C           0     138.255 127.933 148.941  0.00  0.00     0.169 C 
ATOM     10  C           0     138.758 130.175 147.879  0.00  0.00     0.672 C 
ATOM     11  N           0     140.044 130.183 148.095  0.00  0.00    -0.235 N 
ATOM     12  H           0     140.484 129.386 148.429  0.00  0.00     0.174 HD
ATOM     13  H           0     140.560 130.985 147.920  0.00  0.00     0.174 HD
ATOM     14  C           0     136.706 130.788 147.026  0.00  0.00     0.217 C 
ATOM     15  N           0     138.049 131.252 147.407  0.00  0.00    -0.191 N 
ATOM     16  N           0     135.666 131.540 147.727  0.00  0.00    -0.183 N 
ATOM     17  C           0     135.507 132.811 147.004  0.00  0.00     0.150 C 
ATOM     18  C           0     135.983 132.561 145.558  0.00  0.00     0.093 C 
ATOM     19  C           0     136.451 131.081 145.533  0.00  0.00     0.209 C 
ATOM     20  H           0     135.035 129.507 150.103  0.00  0.00     0.178 HD
ATOM     21  H           0     138.378 132.161 147.334  0.00  0.00     0.180 HD
ENDROOT
BRANCH   6  22
ATOM     22  C           0     134.326 128.616 147.212  0.00  0.00     0.208 C 
BRANCH  22  23
ATOM     23  O           0     133.173 128.197 147.990  0.00  0.00    -0.302 OA
BRANCH  23  24
ATOM     24  C           0     132.265 127.361 147.451  0.00  0.00     0.358 C 
ATOM     25  N           0     132.646 126.143 147.019  0.00  0.00    -0.346 N 
ATOM     26  H           0     133.573 125.868 147.095  0.00  0.00     0.161 HD
ATOM     27  H           0     131.992 125.540 146.632  0.00  0.00     0.161 HD
ATOM     28  O           0     131.104 127.704 147.357  0.00  0.00    -0.239 OA
ENDBRANCH  23  24
ENDBRANCH  22  23
ENDBRANCH   6  22
BRANCH  19  29
ATOM     29  O           0     137.650 130.940 144.768  0.00  0.00    -0.362 OA
ATOM     30  H           0     138.376 131.251 145.326  0.00  0.00     0.213 HD
ENDBRANCH  19  29
BRANCH  19  31
ATOM     31  O           0     135.421 130.232 145.024  0.00  0.00    -0.362 OA
ATOM     32  H           0     134.885 130.770 144.425  0.00  0.00     0.213 HD
ENDBRANCH  19  31
TORSDOF 5
ENDMDL
MODEL 6
REMARK VINA RESULT:      -6.4     13.132     14.978
REMARK  5 active torsions:
REMARK  status: ('A' for Active; 'I' for Inactive)
REMARK    1  A    between atoms: C_6  and  C_7 
REMARK    2  A    between atoms: C_7  and  O_8 
REMARK    3  A    between atoms: O_8  and  C_9 
REMARK       I    between atoms: C_9  and  N_10 
REMARK    4  A    between atoms: C_24  and  O_25 
REMARK    5  A    between atoms: C_24  and  O_26 
ROOT
ATOM      1  N           0     135.293 130.806 143.227  0.00  0.00    -0.235 N 
ATOM      2  H           0     135.365 131.111 142.309  0.00  0.00     0.174 HD
ATOM      3  H           0     134.617 130.154 143.469  0.00  0.00     0.174 HD
ATOM      4  C           0     136.108 131.268 144.133  0.00  0.00     0.672 C 
ATOM      5  N           0     137.091 132.193 143.835  0.00  0.00    -0.218 N 
ATOM      6  C           0     137.517 133.116 144.883  0.00  0.00     0.151 C 
ATOM      7  C           0     137.883 132.404 146.172  0.00  0.00     0.182 C 
ATOM      8  N           0     139.226 131.800 146.028  0.00  0.00    -0.211 N 
ATOM      9  C           0     140.379 132.406 145.359  0.00  0.00     0.169 C 
ATOM     10  C           0     139.194 130.569 146.636  0.00  0.00     0.672 C 
ATOM     11  N           0     140.255 129.915 147.021  0.00  0.00    -0.235 N 
ATOM     12  H           0     141.136 130.297 146.883  0.00  0.00     0.174 HD
ATOM     13  H           0     140.163 129.048 147.445  0.00  0.00     0.174 HD
ATOM     14  C           0     136.987 131.223 146.505  0.00  0.00     0.217 C 
ATOM     15  N           0     137.909 130.112 146.789  0.00  0.00    -0.191 N 
ATOM     16  N           0     136.041 130.871 145.447  0.00  0.00    -0.183 N 
ATOM     17  C           0     134.984 130.066 146.079  0.00  0.00     0.150 C 
ATOM     18  C           0     134.964 130.455 147.572  0.00  0.00     0.093 C 
ATOM     19  C           0     136.101 131.500 147.736  0.00  0.00     0.209 C 
ATOM     20  H           0     137.488 132.229 142.950  0.00  0.00     0.178 HD
ATOM     21  H           0     137.652 129.212 147.043  0.00  0.00     0.180 HD
ENDROOT
BRANCH   6  22
ATOM     22  C           0     136.380 134.098 145.170  0.00  0.00     0.208 C 
BRANCH  22  23
ATOM     23  O           0     136.247 135.022 144.057  0.00  0.00    -0.302 OA
BRANCH  23  24
ATOM     24  C           0     135.108 135.051 143.339  0.00  0.00     0.358 C 
ATOM     25  N           0     134.663 136.216 142.830  0.00  0.00    -0.346 N 
ATOM     26  H           0     135.162 137.034 142.980  0.00  0.00     0.161 HD
ATOM     27  H           0     133.843 136.237 142.312  0.00  0.00     0.161 HD
ATOM     28  O           0     134.482 134.026 143.150  0.00  0.00    -0.239 OA
ENDBRANCH  23  24
ENDBRANCH  22  23
ENDBRANCH   6  22
BRANCH  19  29
ATOM     29  O           0     136.822 131.281 148.950  0.00  0.00    -0.362 OA
ATOM     30  H           0     136.218 130.831 149.556  0.00  0.00     0.213 HD
ENDBRANCH  19  29
BRANCH  19  31
ATOM     31  O           0     135.578 132.829 147.689  0.00  0.00    -0.362 OA
ATOM     32  H           0     135.296 133.051 148.587  0.00  0.00     0.213 HD
ENDBRANCH  19  31
TORSDOF 5
ENDMDL
MODEL 7
REMARK VINA RESULT:      -6.3     13.921     15.966
REMARK  5 active torsions:
REMARK  status: ('A' for Active; 'I' for Inactive)
REMARK    1  A    between atoms: C_6  and  C_7 
REMARK    2  A    between atoms: C_7  and  O_8 
REMARK    3  A    between atoms: O_8  and  C_9 
REMARK       I    between atoms: C_9  and  N_10 
REMARK    4  A    between atoms: C_24  and  O_25 
REMARK    5  A    between atoms: C_24  and  O_26 
ROOT
ATOM      1  N           0     138.900 130.258 146.313  0.00  0.00    -0.235 N 
ATOM      2  H           0     138.920 129.380 145.902  0.00  0.00     0.174 HD
ATOM      3  H           0     139.682 130.595 146.778  0.00  0.00     0.174 HD
ATOM      4  C           0     137.824 130.990 146.234  0.00  0.00     0.672 C 
ATOM      5  N           0     136.687 130.557 145.577  0.00  0.00    -0.218 N 
ATOM      6  C           0     135.391 131.055 146.029  0.00  0.00     0.151 C 
ATOM      7  C           0     135.355 132.568 146.136  0.00  0.00     0.182 C 
ATOM      8  N           0     135.209 133.146 144.781  0.00  0.00    -0.211 N 
ATOM      9  C           0     134.364 132.625 143.705  0.00  0.00     0.169 C 
ATOM     10  C           0     136.011 134.259 144.718  0.00  0.00     0.672 C 
ATOM     11  N           0     135.874 135.210 143.836  0.00  0.00    -0.235 N 
ATOM     12  H           0     135.171 135.156 143.170  0.00  0.00     0.174 HD
ATOM     13  H           0     136.475 135.971 143.846  0.00  0.00     0.174 HD
ATOM     14  C           0     136.641 133.185 146.658  0.00  0.00     0.217 C 
ATOM     15  N           0     136.973 134.249 145.697  0.00  0.00    -0.191 N 
ATOM     16  N           0     137.745 132.237 146.804  0.00  0.00    -0.183 N 
ATOM     17  C           0     138.713 132.859 147.721  0.00  0.00     0.150 C 
ATOM     18  C           0     137.923 133.862 148.586  0.00  0.00     0.093 C 
ATOM     19  C           0     136.461 133.786 148.067  0.00  0.00     0.209 C 
ATOM     20  H           0     136.748 129.936 144.833  0.00  0.00     0.178 HD
ATOM     21  H           0     137.738 134.842 145.748  0.00  0.00     0.180 HD
ENDROOT
BRANCH   6  22
ATOM     22  C           0     135.083 130.458 147.404  0.00  0.00     0.208 C 
BRANCH  22  23
ATOM     23  O           0     135.084 129.009 147.312  0.00  0.00    -0.302 OA
BRANCH  23  24
ATOM     24  C           0     134.190 128.290 148.018  0.00  0.00     0.358 C 
ATOM     25  N           0     132.907 128.223 147.610  0.00  0.00    -0.346 N 
ATOM     26  H           0     132.627 128.694 146.809  0.00  0.00     0.161 HD
ATOM     27  H           0     132.263 127.705 148.117  0.00  0.00     0.161 HD
ATOM     28  O           0     134.540 127.700 149.021  0.00  0.00    -0.239 OA
ENDBRANCH  23  24
ENDBRANCH  22  23
ENDBRANCH   6  22
BRANCH  19  29
ATOM     29  O           0     135.877 135.088 148.002  0.00  0.00    -0.362 OA
ATOM     30  H           0     136.013 135.499 148.866  0.00  0.00     0.213 HD
ENDBRANCH  19  29
BRANCH  19  31
ATOM     31  O           0     135.677 132.917 148.886  0.00  0.00    -0.362 OA
ATOM     32  H           0     135.519 132.114 148.371  0.00  0.00     0.213 HD
ENDBRANCH  19  31
TORSDOF 5
ENDMDL
MODEL 8
REMARK VINA RESULT:      -6.2     14.837     16.689
REMARK  5 active torsions:
REMARK  status: ('A' for Active; 'I' for Inactive)
REMARK    1  A    between atoms: C_6  and  C_7 
REMARK    2  A    between atoms: C_7  and  O_8 
REMARK    3  A    between atoms: O_8  and  C_9 
REMARK       I    between atoms: C_9  and  N_10 
REMARK    4  A    between atoms: C_24  and  O_25 
REMARK    5  A    between atoms: C_24  and  O_26 
ROOT
ATOM      1  N           0     138.476 128.675 148.073  0.00  0.00    -0.235 N 
ATOM      2  H           0     138.738 127.986 147.443  0.00  0.00     0.174 HD
ATOM      3  H           0     139.006 128.829 148.871  0.00  0.00     0.174 HD
ATOM      4  C           0     137.416 129.399 147.845  0.00  0.00     0.672 C 
ATOM      5  N           0     136.633 129.221 146.720  0.00  0.00    -0.218 N 
ATOM      6  C           0     135.212 129.549 146.803  0.00  0.00     0.151 C 
ATOM      7  C           0     134.968 130.938 147.362  0.00  0.00     0.182 C 
ATOM      8  N           0     135.232 131.939 146.305  0.00  0.00    -0.211 N 
ATOM      9  C           0     134.875 131.818 144.890  0.00  0.00     0.169 C 
ATOM     10  C           0     135.872 133.003 146.893  0.00  0.00     0.672 C 
ATOM     11  N           0     135.939 134.196 146.372  0.00  0.00    -0.235 N 
ATOM     12  H           0     135.520 134.375 145.516  0.00  0.00     0.174 HD
ATOM     13  H           0     136.408 134.904 146.840  0.00  0.00     0.174 HD
ATOM     14  C           0     135.915 131.333 148.482  0.00  0.00     0.217 C 
ATOM     15  N           0     136.433 132.655 148.097  0.00  0.00    -0.191 N 
ATOM     16  N           0     137.003 130.382 148.711  0.00  0.00    -0.183 N 
ATOM     17  C           0     137.517 130.650 150.063  0.00  0.00     0.150 C 
ATOM     18  C           0     136.367 131.310 150.852  0.00  0.00     0.093 C 
ATOM     19  C           0     135.193 131.425 149.842  0.00  0.00     0.209 C 
ATOM     20  H           0     137.018 128.887 145.894  0.00  0.00     0.178 HD
ATOM     21  H           0     137.060 133.190 148.608  0.00  0.00     0.180 HD
ENDROOT
BRANCH   6  22
ATOM     22  C           0     134.521 128.526 147.707  0.00  0.00     0.208 C 
BRANCH  22  23
ATOM     23  O           0     133.358 127.987 147.026  0.00  0.00    -0.302 OA
BRANCH  23  24
ATOM     24  C           0     132.188 127.869 147.683  0.00  0.00     0.358 C 
ATOM     25  N           0     131.887 128.723 148.681  0.00  0.00    -0.346 N 
ATOM     26  H           0     132.512 129.422 148.926  0.00  0.00     0.161 HD
ATOM     27  H           0     131.044 128.638 149.153  0.00  0.00     0.161 HD
ATOM     28  O           0     131.404 126.993 147.375  0.00  0.00    -0.239 OA
ENDBRANCH  23  24
ENDBRANCH  22  23
ENDBRANCH   6  22
BRANCH  19  29
ATOM     29  O           0     134.521 132.677 149.985  0.00  0.00    -0.362 OA
ATOM     30  H           0     133.775 132.528 150.581  0.00  0.00     0.213 HD
ENDBRANCH  19  29
BRANCH  19  31
ATOM     31  O           0     134.280 130.337 150.000  0.00  0.00    -0.362 OA
ATOM     32  H           0     133.472 130.705 150.385  0.00  0.00     0.213 HD
ENDBRANCH  19  31
TORSDOF 5
ENDMDL
MODEL 9
REMARK VINA RESULT:      -6.2     13.864     15.949
REMARK  5 active torsions:
REMARK  status: ('A' for Active; 'I' for Inactive)
REMARK    1  A    between atoms: C_6  and  C_7 
REMARK    2  A    between atoms: C_7  and  O_8 
REMARK    3  A    between atoms: O_8  and  C_9 
REMARK       I    between atoms: C_9  and  N_10 
REMARK    4  A    between atoms: C_24  and  O_25 
REMARK    5  A    between atoms: C_24  and  O_26 
ROOT
ATOM      1  N           0     139.645 130.144 146.651  0.00  0.00    -0.235 N 
ATOM      2  H           0     140.416 130.557 146.232  0.00  0.00     0.174 HD
ATOM      3  H           0     139.699 129.231 146.973  0.00  0.00     0.174 HD
ATOM      4  C           0     138.537 130.818 146.785  0.00  0.00     0.672 C 
ATOM      5  N           0     138.413 132.123 146.347  0.00  0.00    -0.218 N 
ATOM      6  C           0     137.094 132.596 145.935  0.00  0.00     0.151 C 
ATOM      7  C           0     136.026 132.320 146.977  0.00  0.00     0.182 C 
ATOM      8  N           0     136.144 133.313 148.066  0.00  0.00    -0.211 N 
ATOM      9  C           0     136.438 134.739 147.909  0.00  0.00     0.169 C 
ATOM     10  C           0     135.926 132.655 149.252  0.00  0.00     0.672 C 
ATOM     11  N           0     135.598 133.246 150.368  0.00  0.00    -0.235 N 
ATOM     12  H           0     135.493 134.209 150.393  0.00  0.00     0.174 HD
ATOM     13  H           0     135.458 132.721 151.171  0.00  0.00     0.174 HD
ATOM     14  C           0     136.178 130.984 147.684  0.00  0.00     0.217 C 
ATOM     15  N           0     136.097 131.299 149.119  0.00  0.00    -0.191 N 
ATOM     16  N           0     137.417 130.274 147.366  0.00  0.00    -0.183 N 
ATOM     17  C           0     137.200 128.866 147.733  0.00  0.00     0.150 C 
ATOM     18  C           0     135.678 128.624 147.681  0.00  0.00     0.093 C 
ATOM     19  C           0     135.059 129.996 147.297  0.00  0.00     0.209 C 
ATOM     20  H           0     139.184 132.712 146.314  0.00  0.00     0.178 HD
ATOM     21  H           0     136.151 130.660 149.845  0.00  0.00     0.180 HD
ENDROOT
BRANCH   6  22
ATOM     22  C           0     136.703 131.895 144.632  0.00  0.00     0.208 C 
BRANCH  22  23
ATOM     23  O           0     137.676 132.212 143.602  0.00  0.00    -0.302 OA
BRANCH  23  24
ATOM     24  C           0     137.550 133.344 142.883  0.00  0.00     0.358 C 
ATOM     25  N           0     136.559 133.461 141.978  0.00  0.00    -0.346 N 
ATOM     26  H           0     135.936 132.729 141.844  0.00  0.00     0.161 HD
ATOM     27  H           0     136.468 134.276 141.461  0.00  0.00     0.161 HD
ATOM     28  O           0     138.330 134.261 143.052  0.00  0.00    -0.239 OA
ENDBRANCH  23  24
ENDBRANCH  22  23
ENDBRANCH   6  22
BRANCH  19  29
ATOM     29  O           0     133.870 130.245 148.048  0.00  0.00    -0.362 OA
ATOM     30  H           0     133.693 129.447 148.565  0.00  0.00     0.213 HD
ENDBRANCH  19  29
BRANCH  19  31
ATOM     31  O           0     134.797 130.059 145.894  0.00  0.00    -0.362 OA
ATOM     32  H           0     134.943 130.976 145.624  0.00  0.00     0.213 HD
ENDBRANCH  19  31
TORSDOF 5
ENDMDL
