# created with PyMOL 2.3.4
@<TRIPOS>MOLECULE
ligand_out_0001
32 34 1                 
SMALL
USER_CHARGES
@<TRIPOS>ATOM
1	   N	130.691	131.698	135.386	N.3	1	UNK0	-0.235	
2	   N	129.396	130.496	133.835	N.3	1	UNK0	-0.218	
3	   N	129.946	127.765	132.509	N.3	1	UNK0	-0.211	
4	   N	131.105	125.808	133.162	N.3	1	UNK0	-0.235	
5	   N	132.057	127.968	133.329	N.3	1	UNK0	-0.191	
6	   N	131.723	130.321	133.796	N.3	1	UNK0	-0.183	
7	   N	128.507	133.718	132.558	N.pl3	1	UNK0	-0.346	
8	   C	130.609	130.871	134.382	C.3	1	UNK0	0.672	
9	   C	129.353	130.131	132.422	C.3	1	UNK0	0.151	
10	   C	130.402	129.098	132.056	C.3	1	UNK0	0.182	
11	   C	128.578	127.247	132.436	C.3	1	UNK0	0.169	
12	   C	131.040	127.101	133.009	C.3	1	UNK0	0.672	
13	   C	131.734	129.286	132.762	C.3	1	UNK0	0.217	
14	   C	133.127	130.690	134.034	C.3	1	UNK0	0.150	
15	   C	133.901	130.346	132.744	C.3	1	UNK0	0.093	
16	   C	132.845	129.727	131.788	C.3	1	UNK0	0.209	
17	   C	129.587	131.387	131.581	C.2	1	UNK0	0.208	
18	   C	127.800	133.025	131.643	C.2	1	UNK0	0.358	
19	   O	128.312	131.898	131.110	O.2	1	UNK0	-0.302	
20	   O	126.704	133.417	131.298	O.co2	1	UNK0	-0.239	
21	   O	133.389	128.609	131.086	O.2	1	UNK0	-0.362	
22	   O	132.351	130.709	130.875	O.2	1	UNK0	-0.362	
23	   H	129.884	132.071	135.774	 H	1	UNK0	0.174	
24	   H	131.558	131.937	135.748	 H	1	UNK0	0.174	
25	   H	130.350	125.252	132.915	 H	1	UNK0	0.174	
26	   H	131.909	125.402	133.522	 H	1	UNK0	0.174	
27	   H	128.591	130.475	134.378	 H	1	UNK0	0.178	
28	   H	132.852	127.747	133.838	 H	1	UNK0	0.180	
29	   H	129.383	133.406	132.833	 H	1	UNK0	0.161	
30	   H	128.139	134.530	132.941	 H	1	UNK0	0.161	
31	   H	132.643	128.136	130.691	 H	1	UNK0	0.213	
32	   H	132.156	130.248	130.047	 H	1	UNK0	0.213	
@<TRIPOS>BOND
1 1 8 1
2 1 23 1
3 1 24 1
4 2 9 1
5 2 27 1
6 3 11 1
7 3 12 1
8 4 25 1
9 4 26 1
10 5 28 1
11 6 14 1
12 7 29 1
13 7 30 1
14 2 8 1
15 6 8 1
16 9 10 1
17 9 17 1
18 3 10 1
19 10 13 1
20 4 12 1
21 5 12 1
22 5 13 1
23 6 13 1
24 13 16 1
25 14 15 1
26 15 16 1
27 16 21 2
28 16 22 2
29 17 19 2
30 7 18 1
31 18 20 2
32 18 19 2
33 21 31 1
34 22 32 1
@<TRIPOS>SUBSTRUCTURE
1	UNK0	1	GROUP	1 ****	UNK
