# created with PyMOL 2.3.4
@<TRIPOS>MOLECULE
ligand_out_0001
30 32 1                 
SMALL
USER_CHARGES
@<TRIPOS>ATOM
1	   N	134.953	131.953	146.718	N.3	1	UNK0	-0.235	
2	   N	136.461	133.667	146.145	N.3	1	UNK0	-0.218	
3	   N	136.271	135.745	143.878	N.3	1	UNK0	-0.216	
4	   N	134.490	136.814	142.744	N.3	1	UNK0	-0.235	
5	   N	134.587	134.469	143.042	N.3	1	UNK0	-0.191	
6	   N	135.190	132.627	144.488	N.3	1	UNK0	-0.183	
7	   C	135.508	132.716	145.818	C.3	1	UNK0	0.672	
8	   C	137.456	134.021	145.138	C.3	1	UNK0	0.151	
9	   C	136.835	134.380	143.802	C.3	1	UNK0	0.180	
10	   C	135.080	135.741	143.194	C.3	1	UNK0	0.670	
11	   C	135.643	133.516	143.418	C.3	1	UNK0	0.217	
12	   C	134.378	131.594	143.820	C.3	1	UNK0	0.150	
13	   C	135.126	131.317	142.494	C.3	1	UNK0	0.093	
14	   C	135.963	132.593	142.229	C.3	1	UNK0	0.209	
15	   C	138.401	132.836	144.938	C.2	1	UNK0	0.206	
16	   C	140.275	132.533	146.440	C.2	1	UNK0	0.254	
17	   C	140.782	133.107	147.738	C.3	1	UNK0	0.126	
18	   O	138.955	132.436	146.219	O.2	1	UNK0	-0.320	
19	   O	141.057	132.161	145.597	O.co2	1	UNK0	-0.266	
20	   O	135.566	133.203	140.999	O.2	1	UNK0	-0.362	
21	   O	137.357	132.279	142.204	O.2	1	UNK0	-0.362	
22	   H	135.205	132.041	147.650	 H	1	UNK0	0.174	
23	   H	134.286	131.301	146.455	 H	1	UNK0	0.174	
24	   H	134.894	137.685	142.886	 H	1	UNK0	0.174	
25	   H	133.650	136.741	142.268	 H	1	UNK0	0.174	
26	   H	136.466	134.086	147.020	 H	1	UNK0	0.178	
27	   H	136.670	136.506	144.331	 H	1	UNK0	0.178	
28	   H	133.696	134.239	142.737	 H	1	UNK0	0.180	
29	   H	134.626	133.014	140.884	 H	1	UNK0	0.213	
30	   H	137.464	131.451	142.692	 H	1	UNK0	0.213	
@<TRIPOS>BOND
1 1 7 1
2 1 22 1
3 1 23 1
4 2 8 1
5 2 26 1
6 3 10 1
7 3 27 1
8 4 24 1
9 4 25 1
10 5 28 1
11 6 12 1
12 2 7 1
13 6 7 1
14 8 9 1
15 8 15 1
16 3 9 1
17 9 11 1
18 4 10 1
19 5 10 1
20 5 11 1
21 6 11 1
22 11 14 1
23 12 13 1
24 13 14 1
25 14 20 2
26 14 21 2
27 15 18 2
28 16 17 1
29 16 19 2
30 16 18 2
31 20 29 1
32 21 30 1
@<TRIPOS>SUBSTRUCTURE
1	UNK0	1	GROUP	1 ****	UNK
