# created with PyMOL 2.3.4
@<TRIPOS>MOLECULE
ligand_out_0001
28 30 1                 
SMALL
USER_CHARGES
@<TRIPOS>ATOM
1	   N	135.932	134.702	146.893	N.3	1	UNK0	-0.235	
2	   N	136.340	135.041	144.600	N.3	1	UNK0	-0.218	
3	   N	134.843	133.886	142.169	N.3	1	UNK0	-0.216	
4	   N	132.619	133.192	141.759	N.3	1	UNK0	-0.235	
5	   N	133.860	132.455	143.634	N.3	1	UNK0	-0.191	
6	   N	135.477	133.006	145.345	N.3	1	UNK0	-0.183	
7	   C	135.914	134.265	145.665	C.3	1	UNK0	0.672	
8	   C	136.880	134.365	143.424	C.3	1	UNK0	0.150	
9	   C	135.966	133.272	142.907	C.3	1	UNK0	0.180	
10	   C	133.707	133.178	142.477	C.3	1	UNK0	0.670	
11	   C	135.285	132.462	144.000	C.3	1	UNK0	0.217	
12	   C	135.159	131.897	146.263	C.3	1	UNK0	0.150	
13	   C	135.736	130.643	145.564	C.3	1	UNK0	0.093	
14	   C	135.816	131.020	144.062	C.3	1	UNK0	0.209	
15	   C	138.231	133.746	143.788	C.2	1	UNK0	0.192	
16	   O	134.995	130.147	143.285	O.2	1	UNK0	-0.362	
17	   O	137.170	130.969	143.608	O.2	1	UNK0	-0.362	
18	   O	138.737	133.014	142.669	O.2	1	UNK0	-0.399	
19	   H	136.253	135.597	147.084	 H	1	UNK0	0.174	
20	   H	135.623	134.132	147.615	 H	1	UNK0	0.174	
21	   H	132.577	133.725	140.950	 H	1	UNK0	0.174	
22	   H	131.851	132.666	142.034	 H	1	UNK0	0.174	
23	   H	136.281	136.008	144.636	 H	1	UNK0	0.178	
24	   H	134.897	134.651	141.574	 H	1	UNK0	0.178	
25	   H	133.149	132.013	144.123	 H	1	UNK0	0.180	
26	   H	135.473	129.310	143.206	 H	1	UNK0	0.213	
27	   H	137.358	131.823	143.192	 H	1	UNK0	0.213	
28	   H	139.652	132.785	142.876	 H	1	UNK0	0.209	
@<TRIPOS>BOND
1 1 7 1
2 1 19 1
3 1 20 1
4 2 8 1
5 2 23 1
6 3 10 1
7 3 24 1
8 4 21 1
9 4 22 1
10 5 25 1
11 6 12 1
12 2 7 1
13 6 7 1
14 8 9 1
15 8 15 1
16 3 9 1
17 9 11 1
18 4 10 1
19 5 10 1
20 5 11 1
21 6 11 1
22 11 14 1
23 12 13 1
24 13 14 1
25 14 16 2
26 14 17 2
27 15 18 2
28 16 26 1
29 17 27 1
30 18 28 1
@<TRIPOS>SUBSTRUCTURE
1	UNK0	1	GROUP	1 ****	UNK
