# created with PyMOL 2.3.4
@<TRIPOS>MOLECULE
ligand_out_0001
32 34 1                 
SMALL
USER_CHARGES
@<TRIPOS>ATOM
1	   N	135.014	136.757	143.173	N.3	1	UNK0	-0.235	
2	   N	133.766	134.770	143.017	N.3	1	UNK0	-0.218	
3	   N	134.065	132.155	144.619	N.3	1	UNK0	-0.215	
4	   N	134.820	131.613	146.795	N.3	1	UNK0	-0.235	
5	   N	136.063	132.980	145.320	N.3	1	UNK0	-0.187	
6	   N	136.020	134.690	143.607	N.3	1	UNK0	-0.183	
7	   N	133.556	136.051	139.892	N.pl3	1	UNK0	-0.346	
8	   C	134.940	135.460	143.266	C.3	1	UNK0	0.672	
9	   C	133.860	133.397	142.528	C.3	1	UNK0	0.151	
10	   C	134.772	132.535	143.377	C.3	1	UNK0	0.180	
11	   C	134.973	132.213	145.648	C.3	1	UNK0	0.672	
12	   C	136.020	133.249	143.872	C.3	1	UNK0	0.219	
13	   C	137.095	133.448	146.248	C.3	1	UNK0	0.171	
14	   C	137.428	135.108	143.730	C.3	1	UNK0	0.150	
15	   C	138.231	133.942	143.104	C.3	1	UNK0	0.093	
16	   C	137.295	132.711	143.202	C.3	1	UNK0	0.210	
17	   C	134.397	133.420	141.096	C.2	1	UNK0	0.208	
18	   C	133.427	134.815	139.368	C.2	1	UNK0	0.358	
19	   O	133.319	133.747	140.180	O.2	1	UNK0	-0.302	
20	   O	133.407	134.667	138.161	O.co2	1	UNK0	-0.239	
21	   O	137.895	131.693	144.006	O.2	1	UNK0	-0.362	
22	   O	136.997	132.207	141.899	O.2	1	UNK0	-0.362	
23	   H	134.230	137.272	142.925	 H	1	UNK0	0.174	
24	   H	135.852	137.210	143.358	 H	1	UNK0	0.174	
25	   H	134.024	131.085	146.963	 H	1	UNK0	0.174	
26	   H	135.501	131.696	147.480	 H	1	UNK0	0.174	
27	   H	132.902	135.188	143.166	 H	1	UNK0	0.178	
28	   H	133.130	131.910	144.693	 H	1	UNK0	0.178	
29	   H	133.572	136.169	140.854	 H	1	UNK0	0.161	
30	   H	133.634	136.820	139.307	 H	1	UNK0	0.161	
31	   H	138.131	130.969	143.410	 H	1	UNK0	0.213	
32	   H	136.038	132.278	141.785	 H	1	UNK0	0.213	
@<TRIPOS>BOND
1 1 8 1
2 1 23 1
3 1 24 1
4 2 9 1
5 2 27 1
6 3 11 1
7 3 28 1
8 4 25 1
9 4 26 1
10 5 13 1
11 6 14 1
12 7 29 1
13 7 30 1
14 2 8 1
15 6 8 1
16 9 10 1
17 9 17 1
18 3 10 1
19 10 12 1
20 4 11 1
21 5 11 1
22 5 12 1
23 6 12 1
24 12 16 1
25 14 15 1
26 15 16 1
27 16 21 2
28 16 22 2
29 17 19 2
30 7 18 1
31 18 20 2
32 18 19 2
33 21 31 1
34 22 32 1
@<TRIPOS>SUBSTRUCTURE
1	UNK0	1	GROUP	1 ****	UNK
