# created with PyMOL 2.3.4
@<TRIPOS>MOLECULE
ligand_out_0001
35 38 1                 
SMALL
USER_CHARGES
@<TRIPOS>ATOM
1	   N	135.141	132.796	149.737	N.3	1	UNK0	-0.235	
2	   N	134.675	132.175	147.516	N.3	1	UNK0	-0.218	
3	   N	134.330	129.358	146.318	N.3	1	UNK0	-0.216	
4	   N	133.576	127.276	147.150	N.3	1	UNK0	-0.235	
5	   N	135.207	128.579	148.263	N.3	1	UNK0	-0.191	
6	   N	135.976	130.790	148.868	N.3	1	UNK0	-0.183	
7	   C	135.260	131.952	148.751	C.3	1	UNK0	0.672	
8	   C	135.309	131.595	146.337	C.3	1	UNK0	0.151	
9	   C	135.589	130.112	146.493	C.3	1	UNK0	0.180	
10	   C	134.326	128.339	147.238	C.3	1	UNK0	0.670	
11	   C	136.064	129.712	147.881	C.3	1	UNK0	0.217	
12	   C	136.864	130.381	149.972	C.3	1	UNK0	0.150	
13	   C	138.073	129.722	149.267	C.3	1	UNK0	0.093	
14	   C	137.539	129.277	147.882	C.3	1	UNK0	0.209	
15	   C	136.631	132.320	146.078	C.2	1	UNK0	0.207	
16	   C	137.342	132.679	143.787	C.2	1	UNK0	0.293	
17	   C	136.153	133.350	143.223	C.3	1	UNK0	0.039	
18	   C	135.813	134.640	143.635	C.3	1	UNK0	0.017	
19	   C	134.704	135.262	143.100	C.3	1	UNK0	0.001	
20	   C	133.922	134.606	142.166	C.3	1	UNK0	0.000	
21	   C	134.249	133.325	141.759	C.3	1	UNK0	0.001	
22	   C	135.358	132.693	142.281	C.3	1	UNK0	0.017	
23	   O	137.210	131.842	144.834	O.2	1	UNK0	-0.315	
24	   O	138.440	132.883	143.307	O.co2	1	UNK0	-0.259	
25	   O	137.645	127.859	147.738	O.2	1	UNK0	-0.362	
26	   O	138.254	129.940	146.836	O.2	1	UNK0	-0.362	
27	   H	134.630	133.612	149.619	 H	1	UNK0	0.174	
28	   H	135.561	132.607	150.591	 H	1	UNK0	0.174	
29	   H	132.973	127.169	146.397	 H	1	UNK0	0.174	
30	   H	133.622	126.592	147.836	 H	1	UNK0	0.174	
31	   H	133.866	132.703	147.437	 H	1	UNK0	0.178	
32	   H	133.634	129.549	145.670	 H	1	UNK0	0.178	
33	   H	135.258	128.083	149.094	 H	1	UNK0	0.180	
34	   H	138.523	127.680	147.374	 H	1	UNK0	0.213	
35	   H	137.599	130.206	146.176	 H	1	UNK0	0.213	
@<TRIPOS>BOND
1 1 7 1
2 1 27 1
3 1 28 1
4 2 8 1
5 2 31 1
6 3 10 1
7 3 32 1
8 4 29 1
9 4 30 1
10 5 33 1
11 6 12 1
12 2 7 1
13 6 7 1
14 8 9 1
15 8 15 1
16 3 9 1
17 9 11 1
18 4 10 1
19 5 10 1
20 5 11 1
21 6 11 1
22 11 14 1
23 12 13 1
24 13 14 1
25 14 25 2
26 14 26 2
27 15 23 2
28 16 17 1
29 16 24 2
30 17 18 1
31 17 22 1
32 18 19 1
33 19 20 1
34 20 21 1
35 21 22 1
36 16 23 2
37 25 34 1
38 26 35 1
@<TRIPOS>SUBSTRUCTURE
1	UNK0	1	GROUP	1 ****	UNK
