# created with PyMOL 2.3.4
@<TRIPOS>MOLECULE
ligand_out_0001
50 53 1                 
SMALL
USER_CHARGES
@<TRIPOS>ATOM
1	   N	132.825	129.527	133.119	N.pl3	1	UNK0	-0.288	
2	   N	132.657	133.749	134.935	N.pl3	1	UNK0	-0.359	
3	   N	132.792	135.123	138.107	N.pl3	1	UNK0	-0.335	
4	   N	133.723	134.878	142.984	N.3	1	UNK0	-0.218	
5	   N	134.996	136.848	143.158	N.3	1	UNK0	-0.235	
6	   N	135.985	134.762	143.540	N.3	1	UNK0	-0.183	
7	   N	136.032	133.021	145.221	N.3	1	UNK0	-0.191	
8	   N	134.016	132.230	144.535	N.3	1	UNK0	-0.216	
9	   N	134.794	131.641	146.689	N.3	1	UNK0	-0.235	
10	   C	135.554	126.319	131.240	C.3	1	UNK0	0.094	
11	   C	135.760	124.862	131.215	C.3	1	UNK0	-0.117	
12	   C	135.923	123.700	131.196	C.3	1	UNK0	0.012	
13	   C	134.400	126.656	132.186	C.3	1	UNK0	0.026	
14	   C	133.675	127.906	131.682	C.3	1	UNK0	0.088	
15	   C	133.968	129.089	132.577	C.2	1	UNK0	0.231	
16	   C	131.739	128.832	132.757	C.2	1	UNK0	0.227	
17	   C	132.147	127.732	131.803	C.3	1	UNK0	0.117	
18	   C	132.768	130.666	134.038	C.3	1	UNK0	0.144	
19	   C	132.520	131.949	133.244	C.3	1	UNK0	0.123	
20	   C	131.886	132.981	134.141	C.2	1	UNK0	0.219	
21	   C	132.041	134.751	135.809	C.3	1	UNK0	0.142	
22	   C	133.114	135.379	136.701	C.3	1	UNK0	0.144	
23	   C	133.734	134.627	138.934	C.2	1	UNK0	0.360	
24	   C	134.311	133.555	141.030	C.2	1	UNK0	0.208	
25	   C	133.795	133.513	142.469	C.3	1	UNK0	0.151	
26	   C	134.908	135.549	143.227	C.3	1	UNK0	0.672	
27	   C	135.972	133.317	143.780	C.3	1	UNK0	0.217	
28	   C	137.399	135.162	143.650	C.3	1	UNK0	0.150	
29	   C	134.709	132.626	143.290	C.3	1	UNK0	0.180	
30	   C	137.232	132.777	143.082	C.3	1	UNK0	0.209	
31	   C	134.939	132.260	145.551	C.3	1	UNK0	0.670	
32	   C	138.180	134.000	142.992	C.3	1	UNK0	0.093	
33	   O	135.066	129.567	132.772	O.2	1	UNK0	-0.273	
34	   O	130.607	129.056	133.129	O.2	1	UNK0	-0.273	
35	   O	130.680	133.119	134.150	O.2	1	UNK0	-0.274	
36	   O	134.849	134.392	138.513	O.co2	1	UNK0	-0.239	
37	   O	133.438	134.391	140.226	O.2	1	UNK0	-0.302	
38	   O	137.831	131.738	143.858	O.2	1	UNK0	-0.362	
39	   O	136.909	132.300	141.773	O.2	1	UNK0	-0.362	
40	   H	133.621	133.638	134.929	 H	1	UNK0	0.162	
41	   H	131.901	135.310	138.443	 H	1	UNK0	0.164	
42	   H	132.867	135.301	143.153	 H	1	UNK0	0.178	
43	   H	134.216	137.376	142.930	 H	1	UNK0	0.174	
44	   H	135.842	137.287	143.338	 H	1	UNK0	0.174	
45	   H	133.079	131.994	144.618	 H	1	UNK0	0.178	
46	   H	133.995	131.119	146.859	 H	1	UNK0	0.174	
47	   H	135.487	131.703	147.366	 H	1	UNK0	0.174	
48	   H	136.727	133.312	145.831	 H	1	UNK0	0.180	
49	   H	137.138	131.381	144.430	 H	1	UNK0	0.213	
50	   H	137.676	131.800	141.460	 H	1	UNK0	0.213	
@<TRIPOS>BOND
1 1 16 1
2 1 18 1
3 2 21 1
4 2 40 1
5 3 23 1
6 3 41 1
7 4 26 1
8 4 42 1
9 5 43 1
10 5 44 1
11 6 27 1
12 6 28 1
13 7 31 1
14 7 48 1
15 8 31 1
16 8 45 1
17 9 46 1
18 9 47 1
19 10 11 1
20 10 13 1
21 11 12 1
22 13 14 1
23 14 15 1
24 14 17 1
25 1 15 1
26 15 33 2
27 16 17 1
28 16 34 2
29 18 19 1
30 19 20 1
31 2 20 1
32 20 35 2
33 21 22 1
34 3 22 1
35 23 36 2
36 23 37 2
37 24 25 1
38 4 25 1
39 25 29 1
40 5 26 1
41 6 26 1
42 7 27 1
43 27 29 1
44 27 30 1
45 28 32 1
46 8 29 1
47 30 32 1
48 30 38 2
49 30 39 2
50 9 31 1
51 24 37 2
52 38 49 1
53 39 50 1
@<TRIPOS>SUBSTRUCTURE
1	UNK0	1	GROUP	1 ****	UNK
