MODEL 1
REMARK VINA RESULT:      -8.1      0.000      0.000
REMARK  5 active torsions:
REMARK  status: ('A' for Active; 'I' for Inactive)
REMARK    1  A    between atoms: C_6  and  C_7 
REMARK    2  A    between atoms: C_7  and  O_8 
REMARK    3  A    between atoms: O_8  and  C_9 
REMARK       I    between atoms: C_9  and  N_10 
REMARK    4  A    between atoms: C_23  and  O_24 
REMARK    5  A    between atoms: C_23  and  O_25 
ROOT
ATOM      1  N           0     135.128 136.820 143.210  0.00  0.00    -0.235 N 
ATOM      2  H           0     134.351 137.335 142.943  0.00  0.00     0.174 HD
ATOM      3  H           0     135.964 137.272 143.411  0.00  0.00     0.174 HD
ATOM      4  C           0     135.051 135.522 143.302  0.00  0.00     0.672 C 
ATOM      5  N           0     133.882 134.833 143.031  0.00  0.00    -0.218 N 
ATOM      6  C           0     133.985 133.459 142.546  0.00  0.00     0.151 C 
ATOM      7  C           0     134.879 132.598 143.417  0.00  0.00     0.180 C 
ATOM      8  N           0     134.145 132.221 144.643  0.00  0.00    -0.216 N 
ATOM      9  C           0     135.031 132.280 145.691  0.00  0.00     0.670 C 
ATOM     10  N           0     134.853 131.682 146.836  0.00  0.00    -0.235 N 
ATOM     11  H           0     134.053 131.154 146.987  0.00  0.00     0.174 HD
ATOM     12  H           0     135.520 131.765 147.535  0.00  0.00     0.174 HD
ATOM     13  C           0     136.116 133.313 143.936  0.00  0.00     0.217 C 
ATOM     14  N           0     136.128 133.046 145.384  0.00  0.00    -0.191 N 
ATOM     15  N           0     136.123 134.751 143.669  0.00  0.00    -0.183 N 
ATOM     16  C           0     137.529 135.170 143.822  0.00  0.00     0.150 C 
ATOM     17  C           0     138.344 134.002 143.215  0.00  0.00     0.093 C 
ATOM     18  C           0     137.405 132.771 143.294  0.00  0.00     0.209 C 
ATOM     19  H           0     133.017 135.251 143.160  0.00  0.00     0.178 HD
ATOM     20  H           0     133.208 131.976 144.699  0.00  0.00     0.178 HD
ATOM     21  H           0     136.798 133.355 146.013  0.00  0.00     0.180 HD
ENDROOT
BRANCH   6  22
ATOM     22  C           0     134.553 133.479 141.125  0.00  0.00     0.208 C 
BRANCH  22  23
ATOM     23  O           0     133.485 133.754 140.181  0.00  0.00    -0.302 OA
BRANCH  23  24
ATOM     24  C           0     133.568 134.820 139.362  0.00  0.00     0.358 C 
ATOM     25  N           0     133.524 136.067 139.871  0.00  0.00    -0.346 N 
ATOM     26  H           0     133.432 136.197 140.828  0.00  0.00     0.161 HD
ATOM     27  H           0     133.583 136.834 139.281  0.00  0.00     0.161 HD
ATOM     28  O           0     133.683 134.656 138.163  0.00  0.00    -0.239 OA
ENDBRANCH  23  24
ENDBRANCH  22  23
ENDBRANCH   6  22
BRANCH  18  29
ATOM     29  O           0     137.986 131.755 144.113  0.00  0.00    -0.362 OA
ATOM     30  H           0     138.037 132.113 145.010  0.00  0.00     0.213 HD
ENDBRANCH  18  29
BRANCH  18  31
ATOM     31  O           0     137.134 132.266 141.986  0.00  0.00    -0.362 OA
ATOM     32  H           0     137.734 131.521 141.844  0.00  0.00     0.213 HD
ENDBRANCH  18  31
TORSDOF 5
ENDMDL
MODEL 2
REMARK VINA RESULT:      -7.9      1.906      5.585
REMARK  5 active torsions:
REMARK  status: ('A' for Active; 'I' for Inactive)
REMARK    1  A    between atoms: C_6  and  C_7 
REMARK    2  A    between atoms: C_7  and  O_8 
REMARK    3  A    between atoms: O_8  and  C_9 
REMARK       I    between atoms: C_9  and  N_10 
REMARK    4  A    between atoms: C_23  and  O_24 
REMARK    5  A    between atoms: C_23  and  O_25 
ROOT
ATOM      1  N           0     135.456 132.551 147.001  0.00  0.00    -0.235 N 
ATOM      2  H           0     135.778 132.756 147.892  0.00  0.00     0.174 HD
ATOM      3  H           0     134.813 131.836 146.870  0.00  0.00     0.174 HD
ATOM      4  C           0     135.884 133.237 145.978  0.00  0.00     0.672 C 
ATOM      5  N           0     136.797 134.269 146.113  0.00  0.00    -0.218 N 
ATOM      6  C           0     137.680 134.562 144.988  0.00  0.00     0.151 C 
ATOM      7  C           0     136.926 134.734 143.683  0.00  0.00     0.180 C 
ATOM      8  N           0     136.285 136.065 143.664  0.00  0.00    -0.216 N 
ATOM      9  C           0     135.044 135.920 143.094  0.00  0.00     0.670 C 
ATOM     10  N           0     134.351 136.900 142.587  0.00  0.00    -0.235 N 
ATOM     11  H           0     134.708 137.802 142.597  0.00  0.00     0.174 HD
ATOM     12  H           0     133.479 136.727 142.198  0.00  0.00     0.174 HD
ATOM     13  C           0     135.767 133.767 143.504  0.00  0.00     0.217 C 
ATOM     14  N           0     134.623 134.613 143.124  0.00  0.00    -0.191 N 
ATOM     15  N           0     135.462 132.981 144.700  0.00  0.00    -0.183 N 
ATOM     16  C           0     134.664 131.837 144.222  0.00  0.00     0.150 C 
ATOM     17  C           0     135.315 131.453 142.871  0.00  0.00     0.093 C 
ATOM     18  C           0     136.044 132.736 142.396  0.00  0.00     0.209 C 
ATOM     19  H           0     136.848 134.783 146.933  0.00  0.00     0.178 HD
ATOM     20  H           0     136.670 136.893 143.993  0.00  0.00     0.178 HD
ATOM     21  H           0     133.726 134.301 142.927  0.00  0.00     0.180 HD
ENDROOT
BRANCH   6  22
ATOM     22  C           0     138.680 133.415 144.833  0.00  0.00     0.208 C 
BRANCH  22  23
ATOM     23  O           0     138.963 132.840 146.135  0.00  0.00    -0.302 OA
BRANCH  23  24
ATOM     24  C           0     139.249 131.528 146.244  0.00  0.00     0.358 C 
ATOM     25  N           0     138.333 130.606 145.888  0.00  0.00    -0.346 N 
ATOM     26  H           0     137.467 130.887 145.553  0.00  0.00     0.161 HD
ATOM     27  H           0     138.539 129.662 145.967  0.00  0.00     0.161 HD
ATOM     28  O           0     140.334 131.176 146.663  0.00  0.00    -0.239 OA
ENDBRANCH  23  24
ENDBRANCH  22  23
ENDBRANCH   6  22
BRANCH  18  29
ATOM     29  O           0     135.507 133.180 141.149  0.00  0.00    -0.362 OA
ATOM     30  H           0     134.635 133.555 141.338  0.00  0.00     0.213 HD
ENDBRANCH  18  29
BRANCH  18  31
ATOM     31  O           0     137.448 132.498 142.280  0.00  0.00    -0.362 OA
ATOM     32  H           0     137.765 132.262 143.162  0.00  0.00     0.213 HD
ENDBRANCH  18  31
TORSDOF 5
ENDMDL
MODEL 3
REMARK VINA RESULT:      -7.0      3.310      6.113
REMARK  5 active torsions:
REMARK  status: ('A' for Active; 'I' for Inactive)
REMARK    1  A    between atoms: C_6  and  C_7 
REMARK    2  A    between atoms: C_7  and  O_8 
REMARK    3  A    between atoms: O_8  and  C_9 
REMARK       I    between atoms: C_9  and  N_10 
REMARK    4  A    between atoms: C_23  and  O_24 
REMARK    5  A    between atoms: C_23  and  O_25 
ROOT
ATOM      1  N           0     139.109 130.438 145.976  0.00  0.00    -0.235 N 
ATOM      2  H           0     139.275 129.591 146.418  0.00  0.00     0.174 HD
ATOM      3  H           0     139.846 130.936 145.588  0.00  0.00     0.174 HD
ATOM      4  C           0     137.895 130.906 145.899  0.00  0.00     0.672 C 
ATOM      5  N           0     136.809 130.232 146.432  0.00  0.00    -0.218 N 
ATOM      6  C           0     135.659 131.014 146.875  0.00  0.00     0.151 C 
ATOM      7  C           0     135.170 131.984 145.817  0.00  0.00     0.180 C 
ATOM      8  N           0     134.405 131.241 144.793  0.00  0.00    -0.216 N 
ATOM      9  C           0     134.727 131.773 143.568  0.00  0.00     0.670 C 
ATOM     10  N           0     134.002 131.631 142.494  0.00  0.00    -0.235 N 
ATOM     11  H           0     133.177 131.122 142.530  0.00  0.00     0.174 HD
ATOM     12  H           0     134.288 132.034 141.660  0.00  0.00     0.174 HD
ATOM     13  C           0     136.282 132.654 145.027  0.00  0.00     0.217 C 
ATOM     14  N           0     135.906 132.474 143.615  0.00  0.00    -0.191 N 
ATOM     15  N           0     137.610 132.101 145.291  0.00  0.00    -0.183 N 
ATOM     16  C           0     138.561 133.124 144.818  0.00  0.00     0.150 C 
ATOM     17  C           0     137.904 134.469 145.214  0.00  0.00     0.093 C 
ATOM     18  C           0     136.393 134.155 145.350  0.00  0.00     0.209 C 
ATOM     19  H           0     136.814 129.266 146.509  0.00  0.00     0.178 HD
ATOM     20  H           0     133.787 130.511 144.956  0.00  0.00     0.178 HD
ATOM     21  H           0     136.405 132.797 142.849  0.00  0.00     0.180 HD
ENDROOT
BRANCH   6  22
ATOM     22  C           0     136.050 131.804 148.125  0.00  0.00     0.208 C 
BRANCH  22  23
ATOM     23  O           0     134.859 132.361 148.739  0.00  0.00    -0.302 OA
BRANCH  23  24
ATOM     24  C           0     133.966 131.550 149.337  0.00  0.00     0.358 C 
ATOM     25  N           0     132.656 131.651 149.035  0.00  0.00    -0.346 N 
ATOM     26  H           0     132.356 132.309 148.388  0.00  0.00     0.161 HD
ATOM     27  H           0     132.013 131.067 149.467  0.00  0.00     0.161 HD
ATOM     28  O           0     134.341 130.726 150.147  0.00  0.00    -0.239 OA
ENDBRANCH  23  24
ENDBRANCH  22  23
ENDBRANCH   6  22
BRANCH  18  29
ATOM     29  O           0     135.638 134.928 144.416  0.00  0.00    -0.362 OA
ATOM     30  H           0     135.377 135.740 144.871  0.00  0.00     0.213 HD
ENDBRANCH  18  29
BRANCH  18  31
ATOM     31  O           0     135.948 134.409 146.684  0.00  0.00    -0.362 OA
ATOM     32  H           0     136.187 135.324 146.888  0.00  0.00     0.213 HD
ENDBRANCH  18  31
TORSDOF 5
ENDMDL
MODEL 4
REMARK VINA RESULT:      -6.8      2.842      4.560
REMARK  5 active torsions:
REMARK  status: ('A' for Active; 'I' for Inactive)
REMARK    1  A    between atoms: C_6  and  C_7 
REMARK    2  A    between atoms: C_7  and  O_8 
REMARK    3  A    between atoms: O_8  and  C_9 
REMARK       I    between atoms: C_9  and  N_10 
REMARK    4  A    between atoms: C_23  and  O_24 
REMARK    5  A    between atoms: C_23  and  O_25 
ROOT
ATOM      1  N           0     134.004 131.657 148.449  0.00  0.00    -0.235 N 
ATOM      2  H           0     133.215 131.134 148.243  0.00  0.00     0.174 HD
ATOM      3  H           0     134.077 132.109 149.305  0.00  0.00     0.174 HD
ATOM      4  C           0     134.971 131.751 147.579  0.00  0.00     0.672 C 
ATOM      5  N           0     134.917 131.122 146.347  0.00  0.00    -0.218 N 
ATOM      6  C           0     135.645 131.721 145.233  0.00  0.00     0.151 C 
ATOM      7  C           0     137.092 132.021 145.574  0.00  0.00     0.180 C 
ATOM      8  N           0     137.869 130.765 145.544  0.00  0.00    -0.216 N 
ATOM      9  C           0     138.758 130.802 146.591  0.00  0.00     0.670 C 
ATOM     10  N           0     139.828 130.062 146.671  0.00  0.00    -0.235 N 
ATOM     11  H           0     140.037 129.435 145.960  0.00  0.00     0.174 HD
ATOM     12  H           0     140.415 130.139 147.439  0.00  0.00     0.174 HD
ATOM     13  C           0     137.301 132.547 146.985  0.00  0.00     0.217 C 
ATOM     14  N           0     138.381 131.716 147.543  0.00  0.00    -0.191 N 
ATOM     15  N           0     136.104 132.483 147.823  0.00  0.00    -0.183 N 
ATOM     16  C           0     136.358 133.412 148.939  0.00  0.00     0.150 C 
ATOM     17  C           0     137.098 134.603 148.285  0.00  0.00     0.093 C 
ATOM     18  C           0     137.725 134.026 146.990  0.00  0.00     0.209 C 
ATOM     19  H           0     134.410 130.304 146.228  0.00  0.00     0.178 HD
ATOM     20  H           0     137.771 130.044 144.902  0.00  0.00     0.178 HD
ATOM     21  H           0     138.762 131.801 148.431  0.00  0.00     0.180 HD
ENDROOT
BRANCH   6  22
ATOM     22  C           0     134.952 133.024 144.834  0.00  0.00     0.208 C 
BRANCH  22  23
ATOM     23  O           0     135.585 133.566 143.645  0.00  0.00    -0.302 OA
BRANCH  23  24
ATOM     24  C           0     135.168 134.742 143.137  0.00  0.00     0.358 C 
ATOM     25  N           0     135.849 135.873 143.409  0.00  0.00    -0.346 N 
ATOM     26  H           0     136.639 135.840 143.972  0.00  0.00     0.161 HD
ATOM     27  H           0     135.549 136.719 143.043  0.00  0.00     0.161 HD
ATOM     28  O           0     134.179 134.782 142.432  0.00  0.00    -0.239 OA
ENDBRANCH  23  24
ENDBRANCH  22  23
ENDBRANCH   6  22
BRANCH  18  29
ATOM     29  O           0     139.148 134.142 147.031  0.00  0.00    -0.362 OA
ATOM     30  H           0     139.349 135.079 147.165  0.00  0.00     0.213 HD
ENDBRANCH  18  29
BRANCH  18  31
ATOM     31  O           0     137.202 134.697 145.841  0.00  0.00    -0.362 OA
ATOM     32  H           0     136.726 135.474 146.165  0.00  0.00     0.213 HD
ENDBRANCH  18  31
TORSDOF 5
ENDMDL
MODEL 5
REMARK VINA RESULT:      -6.7      2.632      3.968
REMARK  5 active torsions:
REMARK  status: ('A' for Active; 'I' for Inactive)
REMARK    1  A    between atoms: C_6  and  C_7 
REMARK    2  A    between atoms: C_7  and  O_8 
REMARK    3  A    between atoms: O_8  and  C_9 
REMARK       I    between atoms: C_9  and  N_10 
REMARK    4  A    between atoms: C_23  and  O_24 
REMARK    5  A    between atoms: C_23  and  O_25 
ROOT
ATOM      1  N           0     138.389 135.340 147.053  0.00  0.00    -0.235 N 
ATOM      2  H           0     138.176 136.224 146.717  0.00  0.00     0.174 HD
ATOM      3  H           0     139.140 135.217 147.654  0.00  0.00     0.174 HD
ATOM      4  C           0     137.663 134.316 146.699  0.00  0.00     0.672 C 
ATOM      5  N           0     136.578 134.440 145.848  0.00  0.00    -0.218 N 
ATOM      6  C           0     136.215 133.295 145.020  0.00  0.00     0.151 C 
ATOM      7  C           0     136.073 132.016 145.821  0.00  0.00     0.180 C 
ATOM      8  N           0     134.784 132.035 146.544  0.00  0.00    -0.216 N 
ATOM      9  C           0     134.999 131.500 147.790  0.00  0.00     0.670 C 
ATOM     10  N           0     134.057 131.028 148.558  0.00  0.00    -0.235 N 
ATOM     11  H           0     133.135 131.042 148.257  0.00  0.00     0.174 HD
ATOM     12  H           0     134.278 130.663 149.429  0.00  0.00     0.174 HD
ATOM     13  C           0     137.107 131.855 146.923  0.00  0.00     0.217 C 
ATOM     14  N           0     136.329 131.522 148.128  0.00  0.00    -0.191 N 
ATOM     15  N           0     137.927 133.046 147.142  0.00  0.00    -0.183 N 
ATOM     16  C           0     139.112 132.574 147.882  0.00  0.00     0.150 C 
ATOM     17  C           0     139.436 131.199 147.249  0.00  0.00     0.093 C 
ATOM     18  C           0     138.104 130.723 146.616  0.00  0.00     0.209 C 
ATOM     19  H           0     136.073 135.267 145.804  0.00  0.00     0.178 HD
ATOM     20  H           0     133.938 132.366 146.201  0.00  0.00     0.178 HD
ATOM     21  H           0     136.694 131.346 149.009  0.00  0.00     0.180 HD
ENDROOT
BRANCH   6  22
ATOM     22  C           0     137.295 133.093 143.956  0.00  0.00     0.208 C 
BRANCH  22  23
ATOM     23  O           0     136.848 132.103 142.992  0.00  0.00    -0.302 OA
BRANCH  23  24
ATOM     24  C           0     135.771 132.352 142.223  0.00  0.00     0.358 C 
ATOM     25  N           0     135.874 133.183 141.167  0.00  0.00    -0.346 N 
ATOM     26  H           0     136.724 133.604 140.962  0.00  0.00     0.161 HD
ATOM     27  H           0     135.098 133.362 140.613  0.00  0.00     0.161 HD
ATOM     28  O           0     134.706 131.825 142.480  0.00  0.00    -0.239 OA
ENDBRANCH  23  24
ENDBRANCH  22  23
ENDBRANCH   6  22
BRANCH  18  29
ATOM     29  O           0     137.677 129.500 147.217  0.00  0.00    -0.362 OA
ATOM     30  H           0     136.845 129.254 146.789  0.00  0.00     0.213 HD
ENDBRANCH  18  29
BRANCH  18  31
ATOM     31  O           0     138.252 130.562 145.204  0.00  0.00    -0.362 OA
ATOM     32  H           0     139.153 130.244 145.052  0.00  0.00     0.213 HD
ENDBRANCH  18  31
TORSDOF 5
ENDMDL
MODEL 6
REMARK VINA RESULT:      -6.7      1.850      2.227
REMARK  5 active torsions:
REMARK  status: ('A' for Active; 'I' for Inactive)
REMARK    1  A    between atoms: C_6  and  C_7 
REMARK    2  A    between atoms: C_7  and  O_8 
REMARK    3  A    between atoms: O_8  and  C_9 
REMARK       I    between atoms: C_9  and  N_10 
REMARK    4  A    between atoms: C_23  and  O_24 
REMARK    5  A    between atoms: C_23  and  O_25 
ROOT
ATOM      1  N           0     134.888 135.338 144.807  0.00  0.00    -0.235 N 
ATOM      2  H           0     133.919 135.354 144.806  0.00  0.00     0.174 HD
ATOM      3  H           0     135.386 136.147 145.009  0.00  0.00     0.174 HD
ATOM      4  C           0     135.524 134.231 144.544  0.00  0.00     0.672 C 
ATOM      5  N           0     134.860 133.051 144.256  0.00  0.00    -0.218 N 
ATOM      6  C           0     135.525 132.075 143.397  0.00  0.00     0.151 C 
ATOM      7  C           0     136.933 131.753 143.860  0.00  0.00     0.180 C 
ATOM      8  N           0     136.865 130.842 145.022  0.00  0.00    -0.216 N 
ATOM      9  C           0     137.837 131.231 145.911  0.00  0.00     0.670 C 
ATOM     10  N           0     138.313 130.471 146.857  0.00  0.00    -0.235 N 
ATOM     11  H           0     137.979 129.566 146.964  0.00  0.00     0.174 HD
ATOM     12  H           0     139.000 130.809 147.451  0.00  0.00     0.174 HD
ATOM     13  C           0     137.705 132.954 144.382  0.00  0.00     0.217 C 
ATOM     14  N           0     138.246 132.521 145.681  0.00  0.00    -0.191 N 
ATOM     15  N           0     136.893 134.161 144.528  0.00  0.00    -0.183 N 
ATOM     16  C           0     137.856 135.275 144.595  0.00  0.00     0.150 C 
ATOM     17  C           0     138.959 134.889 143.579  0.00  0.00     0.093 C 
ATOM     18  C           0     138.858 133.348 143.441  0.00  0.00     0.209 C 
ATOM     19  H           0     133.977 132.877 144.616  0.00  0.00     0.178 HD
ATOM     20  H           0     136.248 130.103 145.136  0.00  0.00     0.178 HD
ATOM     21  H           0     138.799 133.055 146.272  0.00  0.00     0.180 HD
ENDROOT
BRANCH   6  22
ATOM     22  C           0     135.590 132.633 141.974  0.00  0.00     0.208 C 
BRANCH  22  23
ATOM     23  O           0     134.246 132.906 141.499  0.00  0.00    -0.302 OA
BRANCH  23  24
ATOM     24  C           0     133.904 134.154 141.125  0.00  0.00     0.358 C 
ATOM     25  N           0     133.838 134.471 139.817  0.00  0.00    -0.346 N 
ATOM     26  H           0     134.038 133.801 139.144  0.00  0.00     0.161 HD
ATOM     27  H           0     133.592 135.370 139.547  0.00  0.00     0.161 HD
ATOM     28  O           0     133.654 134.993 141.967  0.00  0.00    -0.239 OA
ENDBRANCH  23  24
ENDBRANCH  22  23
ENDBRANCH   6  22
BRANCH  18  29
ATOM     29  O           0     140.078 132.731 143.854  0.00  0.00    -0.362 OA
ATOM     30  H           0     140.786 133.134 143.332  0.00  0.00     0.213 HD
ENDBRANCH  18  29
BRANCH  18  31
ATOM     31  O           0     138.545 132.987 142.094  0.00  0.00    -0.362 OA
ATOM     32  H           0     139.383 132.770 141.662  0.00  0.00     0.213 HD
ENDBRANCH  18  31
TORSDOF 5
ENDMDL
MODEL 7
REMARK VINA RESULT:      -6.7      1.888      2.214
REMARK  5 active torsions:
REMARK  status: ('A' for Active; 'I' for Inactive)
REMARK    1  A    between atoms: C_6  and  C_7 
REMARK    2  A    between atoms: C_7  and  O_8 
REMARK    3  A    between atoms: O_8  and  C_9 
REMARK       I    between atoms: C_9  and  N_10 
REMARK    4  A    between atoms: C_23  and  O_24 
REMARK    5  A    between atoms: C_23  and  O_25 
ROOT
ATOM      1  N           0     136.510 135.926 143.737  0.00  0.00    -0.235 N 
ATOM      2  H           0     135.879 136.466 143.235  0.00  0.00     0.174 HD
ATOM      3  H           0     137.405 136.260 143.907  0.00  0.00     0.174 HD
ATOM      4  C           0     136.155 134.755 144.186  0.00  0.00     0.672 C 
ATOM      5  N           0     134.889 134.237 143.974  0.00  0.00    -0.218 N 
ATOM      6  C           0     134.735 132.786 143.920  0.00  0.00     0.151 C 
ATOM      7  C           0     135.365 132.088 145.109  0.00  0.00     0.180 C 
ATOM      8  N           0     134.484 132.242 146.286  0.00  0.00    -0.216 N 
ATOM      9  C           0     135.287 132.459 147.379  0.00  0.00     0.670 C 
ATOM     10  N           0     134.907 132.283 148.613  0.00  0.00    -0.235 N 
ATOM     11  H           0     134.006 131.980 148.804  0.00  0.00     0.174 HD
ATOM     12  H           0     135.526 132.455 149.340  0.00  0.00     0.174 HD
ATOM     13  C           0     136.685 132.693 145.558  0.00  0.00     0.217 C 
ATOM     14  N           0     136.539 132.884 147.011  0.00  0.00    -0.191 N 
ATOM     15  N           0     137.013 133.954 144.894  0.00  0.00    -0.183 N 
ATOM     16  C           0     138.460 134.140 145.101  0.00  0.00     0.150 C 
ATOM     17  C           0     139.052 132.716 144.965  0.00  0.00     0.093 C 
ATOM     18  C           0     137.873 131.758 145.271  0.00  0.00     0.209 C 
ATOM     19  H           0     134.124 134.823 143.865  0.00  0.00     0.178 HD
ATOM     20  H           0     133.514 132.199 146.287  0.00  0.00     0.178 HD
ATOM     21  H           0     137.213 133.246 147.606  0.00  0.00     0.180 HD
ENDROOT
BRANCH   6  22
ATOM     22  C           0     135.392 132.268 142.639  0.00  0.00     0.208 C 
BRANCH  22  23
ATOM     23  O           0     134.833 132.962 141.493  0.00  0.00    -0.302 OA
BRANCH  23  24
ATOM     24  C           0     133.518 133.249 141.454  0.00  0.00     0.358 C 
ATOM     25  N           0     132.609 132.264 141.588  0.00  0.00    -0.346 N 
ATOM     26  H           0     132.901 131.347 141.712  0.00  0.00     0.161 HD
ATOM     27  H           0     131.661 132.471 141.560  0.00  0.00     0.161 HD
ATOM     28  O           0     133.152 134.398 141.300  0.00  0.00    -0.239 OA
ENDBRANCH  23  24
ENDBRANCH  22  23
ENDBRANCH   6  22
BRANCH  18  29
ATOM     29  O           0     138.168 130.954 146.414  0.00  0.00    -0.362 OA
ATOM     30  H           0     137.699 131.349 147.162  0.00  0.00     0.213 HD
ENDBRANCH  18  29
BRANCH  18  31
ATOM     31  O           0     137.594 130.934 144.138  0.00  0.00    -0.362 OA
ATOM     32  H           0     137.986 130.068 144.319  0.00  0.00     0.213 HD
ENDBRANCH  18  31
TORSDOF 5
ENDMDL
MODEL 8
REMARK VINA RESULT:      -6.6      5.395      9.948
REMARK  5 active torsions:
REMARK  status: ('A' for Active; 'I' for Inactive)
REMARK    1  A    between atoms: C_6  and  C_7 
REMARK    2  A    between atoms: C_7  and  O_8 
REMARK    3  A    between atoms: O_8  and  C_9 
REMARK       I    between atoms: C_9  and  N_10 
REMARK    4  A    between atoms: C_23  and  O_24 
REMARK    5  A    between atoms: C_23  and  O_25 
ROOT
ATOM      1  N           0     131.450 132.168 134.869  0.00  0.00    -0.235 N 
ATOM      2  H           0     130.858 131.812 135.550  0.00  0.00     0.174 HD
ATOM      3  H           0     131.849 131.572 134.215  0.00  0.00     0.174 HD
ATOM      4  C           0     131.708 133.445 134.831  0.00  0.00     0.672 C 
ATOM      5  N           0     131.161 134.335 135.739  0.00  0.00    -0.218 N 
ATOM      6  C           0     131.910 135.547 136.056  0.00  0.00     0.151 C 
ATOM      7  C           0     132.345 136.306 134.817  0.00  0.00     0.180 C 
ATOM      8  N           0     131.187 137.040 134.265  0.00  0.00    -0.216 N 
ATOM      9  C           0     131.252 136.947 132.896  0.00  0.00     0.670 C 
ATOM     10  N           0     130.631 137.749 132.077  0.00  0.00    -0.235 N 
ATOM     11  H           0     130.079 138.467 132.427  0.00  0.00     0.174 HD
ATOM     12  H           0     130.720 137.628 131.119  0.00  0.00     0.174 HD
ATOM     13  C           0     132.795 135.416 133.670  0.00  0.00     0.217 C 
ATOM     14  N           0     132.053 135.907 132.496  0.00  0.00    -0.191 N 
ATOM     15  N           0     132.543 133.993 133.892  0.00  0.00    -0.183 N 
ATOM     16  C           0     133.417 133.288 132.937  0.00  0.00     0.150 C 
ATOM     17  C           0     134.724 134.117 132.930  0.00  0.00     0.093 C 
ATOM     18  C           0     134.308 135.529 133.414  0.00  0.00     0.209 C 
ATOM     19  H           0     130.302 134.158 136.152  0.00  0.00     0.178 HD
ATOM     20  H           0     130.504 137.503 134.776  0.00  0.00     0.178 HD
ATOM     21  H           0     132.120 135.556 131.595  0.00  0.00     0.180 HD
ENDROOT
BRANCH   6  22
ATOM     22  C           0     133.153 135.163 136.861  0.00  0.00     0.208 C 
BRANCH  22  23
ATOM     23  O           0     132.750 134.537 138.106  0.00  0.00    -0.302 OA
BRANCH  23  24
ATOM     24  C           0     133.369 134.865 139.256  0.00  0.00     0.358 C 
ATOM     25  N           0     133.475 136.158 139.621  0.00  0.00    -0.346 N 
ATOM     26  H           0     133.105 136.854 139.054  0.00  0.00     0.161 HD
ATOM     27  H           0     133.922 136.394 140.449  0.00  0.00     0.161 HD
ATOM     28  O           0     133.833 133.993 139.966  0.00  0.00    -0.239 OA
ENDBRANCH  23  24
ENDBRANCH  22  23
ENDBRANCH   6  22
BRANCH  18  29
ATOM     29  O           0     134.577 136.501 132.403  0.00  0.00    -0.362 OA
ATOM     30  H           0     135.114 136.062 131.729  0.00  0.00     0.213 HD
ENDBRANCH  18  29
BRANCH  18  31
ATOM     31  O           0     134.992 135.863 134.624  0.00  0.00    -0.362 OA
ATOM     32  H           0     135.914 136.035 134.385  0.00  0.00     0.213 HD
ENDBRANCH  18  31
TORSDOF 5
ENDMDL
MODEL 9
REMARK VINA RESULT:      -6.5      2.987      4.401
REMARK  5 active torsions:
REMARK  status: ('A' for Active; 'I' for Inactive)
REMARK    1  A    between atoms: C_6  and  C_7 
REMARK    2  A    between atoms: C_7  and  O_8 
REMARK    3  A    between atoms: O_8  and  C_9 
REMARK       I    between atoms: C_9  and  N_10 
REMARK    4  A    between atoms: C_23  and  O_24 
REMARK    5  A    between atoms: C_23  and  O_25 
ROOT
ATOM      1  N           0     136.072 134.657 147.298  0.00  0.00    -0.235 N 
ATOM      2  H           0     135.596 135.378 146.859  0.00  0.00     0.174 HD
ATOM      3  H           0     136.563 134.827 148.118  0.00  0.00     0.174 HD
ATOM      4  C           0     136.051 133.456 146.790  0.00  0.00     0.672 C 
ATOM      5  N           0     135.363 133.161 145.626  0.00  0.00    -0.218 N 
ATOM      6  C           0     135.848 132.063 144.795  0.00  0.00     0.151 C 
ATOM      7  C           0     136.063 130.785 145.582  0.00  0.00     0.180 C 
ATOM      8  N           0     134.755 130.149 145.842  0.00  0.00    -0.216 N 
ATOM      9  C           0     134.785 129.647 147.120  0.00  0.00     0.670 C 
ATOM     10  N           0     133.977 128.727 147.566  0.00  0.00    -0.235 N 
ATOM     11  H           0     133.299 128.353 146.981  0.00  0.00     0.174 HD
ATOM     12  H           0     134.053 128.417 148.482  0.00  0.00     0.174 HD
ATOM     13  C           0     136.648 131.001 146.969  0.00  0.00     0.217 C 
ATOM     14  N           0     135.773 130.234 147.872  0.00  0.00    -0.191 N 
ATOM     15  N           0     136.713 132.406 147.370  0.00  0.00    -0.183 N 
ATOM     16  C           0     137.680 132.449 148.483  0.00  0.00     0.150 C 
ATOM     17  C           0     138.779 131.439 148.074  0.00  0.00     0.093 C 
ATOM     18  C           0     138.091 130.478 147.072  0.00  0.00     0.209 C 
ATOM     19  H           0     134.578 133.670 145.370  0.00  0.00     0.178 HD
ATOM     20  H           0     134.010 130.095 145.223  0.00  0.00     0.178 HD
ATOM     21  H           0     135.878 130.156 148.832  0.00  0.00     0.180 HD
ENDROOT
BRANCH   6  22
ATOM     22  C           0     137.175 132.478 144.155  0.00  0.00     0.208 C 
BRANCH  22  23
ATOM     23  O           0     136.933 133.508 143.162  0.00  0.00    -0.302 OA
BRANCH  23  24
ATOM     24  C           0     137.528 134.711 143.280  0.00  0.00     0.358 C 
ATOM     25  N           0     136.832 135.763 143.754  0.00  0.00    -0.346 N 
ATOM     26  H           0     135.902 135.655 144.010  0.00  0.00     0.161 HD
ATOM     27  H           0     137.260 136.630 143.839  0.00  0.00     0.161 HD
ATOM     28  O           0     138.692 134.846 142.960  0.00  0.00    -0.239 OA
ENDBRANCH  23  24
ENDBRANCH  22  23
ENDBRANCH   6  22
BRANCH  18  29
ATOM     29  O           0     138.108 129.141 147.573  0.00  0.00    -0.362 OA
ATOM     30  H           0     138.443 129.186 148.480  0.00  0.00     0.213 HD
ENDBRANCH  18  29
BRANCH  18  31
ATOM     31  O           0     138.735 130.543 145.798  0.00  0.00    -0.362 OA
ATOM     32  H           0     138.792 131.479 145.561  0.00  0.00     0.213 HD
ENDBRANCH  18  31
TORSDOF 5
ENDMDL
