# created with PyMOL 2.3.4
@<TRIPOS>MOLECULE
ligand_out_0001
32 34 1                 
SMALL
USER_CHARGES
@<TRIPOS>ATOM
1	   N	135.128	136.820	143.210	N.3	1	UNK0	-0.235	
2	   N	133.882	134.833	143.031	N.3	1	UNK0	-0.218	
3	   N	134.145	132.221	144.643	N.3	1	UNK0	-0.216	
4	   N	134.853	131.682	146.836	N.3	1	UNK0	-0.235	
5	   N	136.128	133.046	145.384	N.3	1	UNK0	-0.191	
6	   N	136.123	134.751	143.669	N.3	1	UNK0	-0.183	
7	   N	133.524	136.067	139.871	N.pl3	1	UNK0	-0.346	
8	   C	135.051	135.522	143.302	C.3	1	UNK0	0.672	
9	   C	133.985	133.459	142.546	C.3	1	UNK0	0.151	
10	   C	134.879	132.598	143.417	C.3	1	UNK0	0.180	
11	   C	135.031	132.280	145.691	C.3	1	UNK0	0.670	
12	   C	136.116	133.313	143.936	C.3	1	UNK0	0.217	
13	   C	137.529	135.170	143.822	C.3	1	UNK0	0.150	
14	   C	138.344	134.002	143.215	C.3	1	UNK0	0.093	
15	   C	137.405	132.771	143.294	C.3	1	UNK0	0.209	
16	   C	134.553	133.479	141.125	C.2	1	UNK0	0.208	
17	   C	133.568	134.820	139.362	C.2	1	UNK0	0.358	
18	   O	133.485	133.754	140.181	O.2	1	UNK0	-0.302	
19	   O	133.683	134.656	138.163	O.co2	1	UNK0	-0.239	
20	   O	137.986	131.755	144.113	O.2	1	UNK0	-0.362	
21	   O	137.134	132.266	141.986	O.2	1	UNK0	-0.362	
22	   H	134.351	137.335	142.943	 H	1	UNK0	0.174	
23	   H	135.964	137.272	143.411	 H	1	UNK0	0.174	
24	   H	134.053	131.154	146.987	 H	1	UNK0	0.174	
25	   H	135.520	131.765	147.535	 H	1	UNK0	0.174	
26	   H	133.017	135.251	143.160	 H	1	UNK0	0.178	
27	   H	133.208	131.976	144.699	 H	1	UNK0	0.178	
28	   H	136.798	133.355	146.013	 H	1	UNK0	0.180	
29	   H	133.432	136.197	140.828	 H	1	UNK0	0.161	
30	   H	133.583	136.834	139.281	 H	1	UNK0	0.161	
31	   H	138.037	132.113	145.010	 H	1	UNK0	0.213	
32	   H	137.734	131.521	141.844	 H	1	UNK0	0.213	
@<TRIPOS>BOND
1 1 8 1
2 1 22 1
3 1 23 1
4 2 9 1
5 2 26 1
6 3 11 1
7 3 27 1
8 4 24 1
9 4 25 1
10 5 28 1
11 6 13 1
12 7 29 1
13 7 30 1
14 2 8 1
15 6 8 1
16 9 10 1
17 9 16 1
18 3 10 1
19 10 12 1
20 4 11 1
21 5 11 1
22 5 12 1
23 6 12 1
24 12 15 1
25 13 14 1
26 14 15 1
27 15 20 2
28 15 21 2
29 16 18 2
30 7 17 1
31 17 19 2
32 17 18 2
33 20 31 1
34 21 32 1
@<TRIPOS>SUBSTRUCTURE
1	UNK0	1	GROUP	1 ****	UNK
