# created with PyMOL 2.3.4
@<TRIPOS>MOLECULE
ligand_out_0001
35 37 1                 
SMALL
USER_CHARGES
@<TRIPOS>ATOM
1	   N	139.605	130.526	146.250	N.3	1	UNK0	-0.235	
2	   N	138.563	132.355	145.198	N.3	1	UNK0	-0.218	
3	   N	136.591	134.410	146.372	N.3	1	UNK0	-0.216	
4	   N	136.233	135.332	148.521	N.3	1	UNK0	-0.235	
5	   N	136.405	133.003	148.146	N.3	1	UNK0	-0.191	
6	   N	137.469	131.215	146.912	N.3	1	UNK0	-0.183	
7	   N	135.019	133.477	141.084	N.pl3	1	UNK0	-0.211	
8	   C	138.587	131.331	146.129	C.3	1	UNK0	0.672	
9	   C	137.268	132.787	144.678	C.3	1	UNK0	0.151	
10	   C	136.271	133.094	145.778	C.3	1	UNK0	0.180	
11	   C	136.400	134.311	147.728	C.3	1	UNK0	0.670	
12	   C	136.332	132.137	146.959	C.3	1	UNK0	0.217	
13	   C	137.120	130.121	147.837	C.3	1	UNK0	0.150	
14	   C	135.603	129.903	147.620	C.3	1	UNK0	0.093	
15	   C	135.084	131.243	147.039	C.3	1	UNK0	0.209	
16	   C	136.697	131.680	143.791	C.2	1	UNK0	0.208	
17	   C	135.214	132.789	142.227	C.2	1	UNK0	0.376	
18	   O	136.407	132.217	142.474	O.2	1	UNK0	-0.301	
19	   O	134.311	132.686	143.035	O.co2	1	UNK0	-0.237	
20	   O	132.541	133.241	141.240	O.3	1	UNK0	-0.578	
21	   O	133.530	135.427	141.534	O.3	1	UNK0	-0.578	
22	   O	133.490	134.402	139.345	O.3	1	UNK0	-0.578	
23	   O	134.108	131.818	147.910	O.2	1	UNK0	-0.362	
24	   O	134.533	131.041	145.736	O.2	1	UNK0	-0.362	
25	   S	133.551	134.182	140.782	S.3	1	UNK0	0.213	
26	   H	140.380	130.635	145.676	 H	1	UNK0	0.174	
27	   H	139.590	129.822	146.918	 H	1	UNK0	0.174	
28	   H	136.240	136.232	148.160	 H	1	UNK0	0.174	
29	   H	136.102	135.192	149.471	 H	1	UNK0	0.174	
30	   H	139.385	132.773	144.897	 H	1	UNK0	0.178	
31	   H	136.885	135.200	145.891	 H	1	UNK0	0.178	
32	   H	136.446	132.702	149.068	 H	1	UNK0	0.180	
33	   H	135.739	133.560	140.440	 H	1	UNK0	0.186	
34	   H	134.545	131.968	148.759	 H	1	UNK0	0.213	
35	   H	133.795	130.423	145.837	 H	1	UNK0	0.213	
@<TRIPOS>BOND
1 1 8 1
2 1 26 1
3 1 27 1
4 2 9 1
5 2 30 1
6 3 11 1
7 3 31 1
8 4 28 1
9 4 29 1
10 5 32 1
11 6 13 1
12 7 25 1
13 7 33 1
14 2 8 1
15 6 8 1
16 9 10 1
17 9 16 1
18 3 10 1
19 10 12 1
20 4 11 1
21 5 11 1
22 5 12 1
23 6 12 1
24 12 15 1
25 13 14 1
26 14 15 1
27 15 23 2
28 15 24 2
29 16 18 2
30 7 17 1
31 17 19 2
32 17 18 2
33 23 34 1
34 24 35 1
35 20 25 1
36 21 25 1
37 22 25 1
@<TRIPOS>SUBSTRUCTURE
1	UNK0	1	GROUP	1 ****	UNK
