MODEL 1
REMARK VINA RESULT:      -7.9      0.000      0.000
REMARK  6 active torsions:
REMARK  status: ('A' for Active; 'I' for Inactive)
REMARK    1  A    between atoms: C_6  and  C_7 
REMARK    2  A    between atoms: C_7  and  O_8 
REMARK    3  A    between atoms: O_8  and  C_9 
REMARK       I    between atoms: C_9  and  N_10 
REMARK    4  A    between atoms: N_10  and  S_11 
REMARK    5  A    between atoms: C_27  and  O_28 
REMARK    6  A    between atoms: C_27  and  O_29 
ROOT
ATOM      1  N           0     139.605 130.526 146.250  0.00  0.00    -0.235 N 
ATOM      2  H           0     140.380 130.635 145.676  0.00  0.00     0.174 HD
ATOM      3  H           0     139.590 129.822 146.918  0.00  0.00     0.174 HD
ATOM      4  C           0     138.587 131.331 146.129  0.00  0.00     0.672 C 
ATOM      5  N           0     138.563 132.355 145.198  0.00  0.00    -0.218 N 
ATOM      6  C           0     137.268 132.787 144.678  0.00  0.00     0.151 C 
ATOM      7  C           0     136.271 133.094 145.778  0.00  0.00     0.180 C 
ATOM      8  N           0     136.591 134.410 146.372  0.00  0.00    -0.216 N 
ATOM      9  C           0     136.400 134.311 147.728  0.00  0.00     0.670 C 
ATOM     10  N           0     136.233 135.332 148.521  0.00  0.00    -0.235 N 
ATOM     11  H           0     136.240 136.232 148.160  0.00  0.00     0.174 HD
ATOM     12  H           0     136.102 135.192 149.471  0.00  0.00     0.174 HD
ATOM     13  C           0     136.332 132.137 146.959  0.00  0.00     0.217 C 
ATOM     14  N           0     136.405 133.003 148.146  0.00  0.00    -0.191 N 
ATOM     15  N           0     137.469 131.215 146.912  0.00  0.00    -0.183 N 
ATOM     16  C           0     137.120 130.121 147.837  0.00  0.00     0.150 C 
ATOM     17  C           0     135.603 129.903 147.620  0.00  0.00     0.093 C 
ATOM     18  C           0     135.084 131.243 147.039  0.00  0.00     0.209 C 
ATOM     19  H           0     139.385 132.773 144.897  0.00  0.00     0.178 HD
ATOM     20  H           0     136.885 135.200 145.891  0.00  0.00     0.178 HD
ATOM     21  H           0     136.446 132.702 149.068  0.00  0.00     0.180 HD
ENDROOT
BRANCH   6  22
ATOM     22  C           0     136.697 131.680 143.791  0.00  0.00     0.208 C 
BRANCH  22  23
ATOM     23  O           0     136.407 132.217 142.474  0.00  0.00    -0.301 OA
BRANCH  23  24
ATOM     24  C           0     135.214 132.789 142.227  0.00  0.00     0.376 C 
ATOM     25  N           0     135.019 133.477 141.084  0.00  0.00    -0.211 N 
ATOM     26  H           0     135.739 133.560 140.440  0.00  0.00     0.186 HD
ATOM     27  O           0     134.311 132.686 143.035  0.00  0.00    -0.237 OA
BRANCH  25  28
ATOM     28  S           0     133.551 134.182 140.782  0.00  0.00     0.213 S 
ATOM     29  O           0     132.541 133.241 141.240  0.00  0.00    -0.578 OA
ATOM     30  O           0     133.530 135.427 141.534  0.00  0.00    -0.578 OA
ATOM     31  O           0     133.490 134.402 139.345  0.00  0.00    -0.578 OA
ENDBRANCH  25  28
ENDBRANCH  23  24
ENDBRANCH  22  23
ENDBRANCH   6  22
BRANCH  18  32
ATOM     32  O           0     134.108 131.818 147.910  0.00  0.00    -0.362 OA
ATOM     33  H           0     134.545 131.968 148.759  0.00  0.00     0.213 HD
ENDBRANCH  18  32
BRANCH  18  34
ATOM     34  O           0     134.533 131.041 145.736  0.00  0.00    -0.362 OA
ATOM     35  H           0     133.795 130.423 145.837  0.00  0.00     0.213 HD
ENDBRANCH  18  34
TORSDOF 6
ENDMDL
MODEL 2
REMARK VINA RESULT:      -7.5      3.224      6.026
REMARK  6 active torsions:
REMARK  status: ('A' for Active; 'I' for Inactive)
REMARK    1  A    between atoms: C_6  and  C_7 
REMARK    2  A    between atoms: C_7  and  O_8 
REMARK    3  A    between atoms: O_8  and  C_9 
REMARK       I    between atoms: C_9  and  N_10 
REMARK    4  A    between atoms: N_10  and  S_11 
REMARK    5  A    between atoms: C_27  and  O_28 
REMARK    6  A    between atoms: C_27  and  O_29 
ROOT
ATOM      1  N           0     134.759 131.942 146.575  0.00  0.00    -0.235 N 
ATOM      2  H           0     134.985 132.013 147.516  0.00  0.00     0.174 HD
ATOM      3  H           0     134.100 131.294 146.281  0.00  0.00     0.174 HD
ATOM      4  C           0     135.338 132.723 145.706  0.00  0.00     0.672 C 
ATOM      5  N           0     136.279 133.668 146.076  0.00  0.00    -0.218 N 
ATOM      6  C           0     137.302 134.042 145.103  0.00  0.00     0.151 C 
ATOM      7  C           0     136.716 134.426 143.758  0.00  0.00     0.180 C 
ATOM      8  N           0     136.149 135.789 143.845  0.00  0.00    -0.216 N 
ATOM      9  C           0     134.978 135.798 143.129  0.00  0.00     0.670 C 
ATOM     10  N           0     134.399 136.877 142.683  0.00  0.00    -0.235 N 
ATOM     11  H           0     134.797 137.745 142.853  0.00  0.00     0.174 HD
ATOM     12  H           0     133.572 136.812 142.183  0.00  0.00     0.174 HD
ATOM     13  C           0     135.538 133.568 143.325  0.00  0.00     0.217 C 
ATOM     14  N           0     134.491 134.527 142.940  0.00  0.00    -0.191 N 
ATOM     15  N           0     135.056 132.658 144.367  0.00  0.00    -0.183 N 
ATOM     16  C           0     134.264 131.638 143.656  0.00  0.00     0.150 C 
ATOM     17  C           0     135.048 131.386 142.346  0.00  0.00     0.093 C 
ATOM     18  C           0     135.890 132.668 142.129  0.00  0.00     0.209 C 
ATOM     19  H           0     136.261 134.070 146.958  0.00  0.00     0.178 HD
ATOM     20  H           0     136.535 136.540 144.322  0.00  0.00     0.178 HD
ATOM     21  H           0     133.609 134.302 142.605  0.00  0.00     0.180 HD
ENDROOT
BRANCH   6  22
ATOM     22  C           0     138.254 132.861 144.907  0.00  0.00     0.208 C 
BRANCH  22  23
ATOM     23  O           0     139.073 132.697 146.094  0.00  0.00    -0.301 OA
BRANCH  23  24
ATOM     24  C           0     138.661 131.892 147.091  0.00  0.00     0.376 C 
ATOM     25  N           0     138.024 130.738 146.806  0.00  0.00    -0.211 N 
ATOM     26  H           0     137.863 130.488 145.884  0.00  0.00     0.186 HD
ATOM     27  O           0     138.862 132.205 148.248  0.00  0.00    -0.237 OA
BRANCH  25  28
ATOM     28  S           0     137.517 129.748 148.034  0.00  0.00     0.213 S 
ATOM     29  O           0     136.819 128.638 147.405  0.00  0.00    -0.578 OA
ATOM     30  O           0     138.717 129.320 148.738  0.00  0.00    -0.578 OA
ATOM     31  O           0     136.641 130.550 148.873  0.00  0.00    -0.578 OA
ENDBRANCH  25  28
ENDBRANCH  23  24
ENDBRANCH  22  23
ENDBRANCH   6  22
BRANCH  18  32
ATOM     32  O           0     135.526 133.301 140.900  0.00  0.00    -0.362 OA
ATOM     33  H           0     134.967 132.676 140.419  0.00  0.00     0.213 HD
ENDBRANCH  18  32
BRANCH  18  34
ATOM     34  O           0     137.285 132.356 142.135  0.00  0.00    -0.362 OA
ATOM     35  H           0     137.370 131.465 142.502  0.00  0.00     0.213 HD
ENDBRANCH  18  34
TORSDOF 6
ENDMDL
MODEL 3
REMARK VINA RESULT:      -7.3      1.889      3.181
REMARK  6 active torsions:
REMARK  status: ('A' for Active; 'I' for Inactive)
REMARK    1  A    between atoms: C_6  and  C_7 
REMARK    2  A    between atoms: C_7  and  O_8 
REMARK    3  A    between atoms: O_8  and  C_9 
REMARK       I    between atoms: C_9  and  N_10 
REMARK    4  A    between atoms: N_10  and  S_11 
REMARK    5  A    between atoms: C_27  and  O_28 
REMARK    6  A    between atoms: C_27  and  O_29 
ROOT
ATOM      1  N           0     135.938 134.722 147.171  0.00  0.00    -0.235 N 
ATOM      2  H           0     135.264 135.342 146.850  0.00  0.00     0.174 HD
ATOM      3  H           0     136.620 135.025 147.792  0.00  0.00     0.174 HD
ATOM      4  C           0     135.922 133.480 146.775  0.00  0.00     0.672 C 
ATOM      5  N           0     134.967 132.998 145.898  0.00  0.00    -0.218 N 
ATOM      6  C           0     135.325 131.877 145.033  0.00  0.00     0.151 C 
ATOM      7  C           0     135.923 130.715 145.802  0.00  0.00     0.180 C 
ATOM      8  N           0     134.842 129.977 146.489  0.00  0.00    -0.216 N 
ATOM      9  C           0     135.308 129.615 147.729  0.00  0.00     0.670 C 
ATOM     10  N           0     134.791 128.668 148.459  0.00  0.00    -0.235 N 
ATOM     11  H           0     134.026 128.169 148.133  0.00  0.00     0.174 HD
ATOM     12  H           0     135.170 128.462 149.327  0.00  0.00     0.174 HD
ATOM     13  C           0     136.855 131.129 146.930  0.00  0.00     0.217 C 
ATOM     14  N           0     136.389 130.375 148.105  0.00  0.00    -0.191 N 
ATOM     15  N           0     136.854 132.569 147.198  0.00  0.00    -0.183 N 
ATOM     16  C           0     138.090 132.824 147.960  0.00  0.00     0.150 C 
ATOM     17  C           0     139.142 131.896 147.307  0.00  0.00     0.093 C 
ATOM     18  C           0     138.320 130.772 146.627  0.00  0.00     0.209 C 
ATOM     19  H           0     134.083 133.395 145.857  0.00  0.00     0.178 HD
ATOM     20  H           0     133.962 129.784 146.130  0.00  0.00     0.178 HD
ATOM     21  H           0     136.780 130.406 148.992  0.00  0.00     0.180 HD
ENDROOT
BRANCH   6  22
ATOM     22  C           0     136.342 132.357 143.996  0.00  0.00     0.208 C 
BRANCH  22  23
ATOM     23  O           0     135.794 132.182 142.664  0.00  0.00    -0.301 OA
BRANCH  23  24
ATOM     24  C           0     134.781 132.962 142.244  0.00  0.00     0.376 C 
ATOM     25  N           0     134.715 133.345 140.953  0.00  0.00    -0.211 N 
ATOM     26  H           0     135.397 133.058 140.327  0.00  0.00     0.186 HD
ATOM     27  O           0     133.925 133.322 143.028  0.00  0.00    -0.237 OA
BRANCH  25  28
ATOM     28  S           0     133.468 134.305 140.437  0.00  0.00     0.213 S 
ATOM     29  O           0     132.245 133.557 140.682  0.00  0.00    -0.578 OA
ATOM     30  O           0     133.537 135.526 141.224  0.00  0.00    -0.578 OA
ATOM     31  O           0     133.694 134.546 139.020  0.00  0.00    -0.578 OA
ENDBRANCH  25  28
ENDBRANCH  23  24
ENDBRANCH  22  23
ENDBRANCH   6  22
BRANCH  18  32
ATOM     32  O           0     138.655 129.501 147.188  0.00  0.00    -0.362 OA
ATOM     33  H           0     139.507 129.244 146.810  0.00  0.00     0.213 HD
ENDBRANCH  18  32
BRANCH  18  34
ATOM     34  O           0     138.549 130.770 145.216  0.00  0.00    -0.362 OA
ATOM     35  H           0     138.813 131.669 144.974  0.00  0.00     0.213 HD
ENDBRANCH  18  34
TORSDOF 6
ENDMDL
MODEL 4
REMARK VINA RESULT:      -7.2     10.243     12.882
REMARK  6 active torsions:
REMARK  status: ('A' for Active; 'I' for Inactive)
REMARK    1  A    between atoms: C_6  and  C_7 
REMARK    2  A    between atoms: C_7  and  O_8 
REMARK    3  A    between atoms: O_8  and  C_9 
REMARK       I    between atoms: C_9  and  N_10 
REMARK    4  A    between atoms: N_10  and  S_11 
REMARK    5  A    between atoms: C_27  and  O_28 
REMARK    6  A    between atoms: C_27  and  O_29 
ROOT
ATOM      1  N           0     131.196 135.839 131.455  0.00  0.00    -0.235 N 
ATOM      2  H           0     130.304 136.053 131.140  0.00  0.00     0.174 HD
ATOM      3  H           0     131.972 136.151 130.962  0.00  0.00     0.174 HD
ATOM      4  C           0     131.353 135.141 132.544  0.00  0.00     0.672 C 
ATOM      5  N           0     130.279 134.680 133.285  0.00  0.00    -0.218 N 
ATOM      6  C           0     130.450 133.456 134.063  0.00  0.00     0.151 C 
ATOM      7  C           0     131.682 133.492 134.946  0.00  0.00     0.180 C 
ATOM      8  N           0     131.408 134.333 136.131  0.00  0.00    -0.216 N 
ATOM      9  C           0     132.540 135.064 136.392  0.00  0.00     0.670 C 
ATOM     10  N           0     132.801 135.627 137.538  0.00  0.00    -0.235 N 
ATOM     11  H           0     132.173 135.543 138.273  0.00  0.00     0.174 HD
ATOM     12  H           0     133.621 136.130 137.656  0.00  0.00     0.174 HD
ATOM     13  C           0     132.890 134.154 134.301  0.00  0.00     0.217 C 
ATOM     14  N           0     133.366 135.128 135.296  0.00  0.00    -0.191 N 
ATOM     15  N           0     132.593 134.811 133.026  0.00  0.00    -0.183 N 
ATOM     16  C           0     133.898 134.981 132.363  0.00  0.00     0.150 C 
ATOM     17  C           0     134.672 133.684 132.700  0.00  0.00     0.093 C 
ATOM     18  C           0     134.003 133.140 133.987  0.00  0.00     0.209 C 
ATOM     19  H           0     129.434 135.157 133.288  0.00  0.00     0.178 HD
ATOM     20  H           0     130.578 134.363 136.632  0.00  0.00     0.178 HD
ATOM     21  H           0     134.133 135.713 135.198  0.00  0.00     0.180 HD
ENDROOT
BRANCH   6  22
ATOM     22  C           0     130.566 132.272 133.102  0.00  0.00     0.208 C 
BRANCH  22  23
ATOM     23  O           0     130.523 131.031 133.854  0.00  0.00    -0.301 OA
BRANCH  23  24
ATOM     24  C           0     130.723 129.857 133.229  0.00  0.00     0.376 C 
ATOM     25  N           0     131.843 129.146 133.471  0.00  0.00    -0.211 N 
ATOM     26  H           0     132.504 129.481 134.097  0.00  0.00     0.186 HD
ATOM     27  O           0     129.895 129.436 132.444  0.00  0.00    -0.237 OA
BRANCH  25  28
ATOM     28  S           0     132.089 127.700 132.701  0.00  0.00     0.213 S 
ATOM     29  O           0     131.062 126.794 133.190  0.00  0.00    -0.578 OA
ATOM     30  O           0     131.961 127.967 131.277  0.00  0.00    -0.578 OA
ATOM     31  O           0     133.429 127.265 133.064  0.00  0.00    -0.578 OA
ENDBRANCH  25  28
ENDBRANCH  23  24
ENDBRANCH  22  23
ENDBRANCH   6  22
BRANCH  18  32
ATOM     32  O           0     134.949 133.085 135.056  0.00  0.00    -0.362 OA
ATOM     33  H           0     135.819 132.963 134.653  0.00  0.00     0.213 HD
ENDBRANCH  18  32
BRANCH  18  34
ATOM     34  O           0     133.443 131.846 133.749  0.00  0.00    -0.362 OA
ATOM     35  H           0     132.502 131.978 133.569  0.00  0.00     0.213 HD
ENDBRANCH  18  34
TORSDOF 6
ENDMDL
MODEL 5
REMARK VINA RESULT:      -7.2      3.131      6.231
REMARK  6 active torsions:
REMARK  status: ('A' for Active; 'I' for Inactive)
REMARK    1  A    between atoms: C_6  and  C_7 
REMARK    2  A    between atoms: C_7  and  O_8 
REMARK    3  A    between atoms: O_8  and  C_9 
REMARK       I    between atoms: C_9  and  N_10 
REMARK    4  A    between atoms: N_10  and  S_11 
REMARK    5  A    between atoms: C_27  and  O_28 
REMARK    6  A    between atoms: C_27  and  O_29 
ROOT
ATOM      1  N           0     138.766 130.759 145.531  0.00  0.00    -0.235 N 
ATOM      2  H           0     138.911 130.010 146.131  0.00  0.00     0.174 HD
ATOM      3  H           0     139.517 131.157 145.061  0.00  0.00     0.174 HD
ATOM      4  C           0     137.562 131.225 145.349  0.00  0.00     0.672 C 
ATOM      5  N           0     136.460 130.687 145.989  0.00  0.00    -0.218 N 
ATOM      6  C           0     135.321 131.562 146.257  0.00  0.00     0.151 C 
ATOM      7  C           0     134.861 132.316 145.025  0.00  0.00     0.180 C 
ATOM      8  N           0     134.089 131.402 144.155  0.00  0.00    -0.216 N 
ATOM      9  C           0     134.433 131.678 142.854  0.00  0.00     0.670 C 
ATOM     10  N           0     133.715 131.342 141.820  0.00  0.00    -0.235 N 
ATOM     11  H           0     132.880 130.865 141.944  0.00  0.00     0.174 HD
ATOM     12  H           0     134.016 131.569 140.927  0.00  0.00     0.174 HD
ATOM     13  C           0     135.993 132.799 144.132  0.00  0.00     0.217 C 
ATOM     14  N           0     135.627 132.353 142.778  0.00  0.00    -0.191 N 
ATOM     15  N           0     137.309 132.283 144.516  0.00  0.00    -0.183 N 
ATOM     16  C           0     138.283 133.177 143.864  0.00  0.00     0.150 C 
ATOM     17  C           0     137.652 134.584 143.982  0.00  0.00     0.093 C 
ATOM     18  C           0     136.133 134.330 144.158  0.00  0.00     0.209 C 
ATOM     19  H           0     136.443 129.754 146.253  0.00  0.00     0.178 HD
ATOM     20  H           0     133.456 130.730 144.450  0.00  0.00     0.178 HD
ATOM     21  H           0     136.139 132.510 141.970  0.00  0.00     0.180 HD
ENDROOT
BRANCH   6  22
ATOM     22  C           0     135.718 132.574 147.334  0.00  0.00     0.208 C 
BRANCH  22  23
ATOM     23  O           0     134.898 132.371 148.514  0.00  0.00    -0.301 OA
BRANCH  23  24
ATOM     24  C           0     134.533 131.127 148.875  0.00  0.00     0.376 C 
ATOM     25  N           0     133.227 130.795 148.921  0.00  0.00    -0.211 N 
ATOM     26  H           0     132.551 131.452 148.693  0.00  0.00     0.186 HD
ATOM     27  O           0     135.380 130.303 149.161  0.00  0.00    -0.237 OA
BRANCH  25  28
ATOM     28  S           0     132.778 129.263 149.365  0.00  0.00     0.213 S 
ATOM     29  O           0     133.407 128.359 148.415  0.00  0.00    -0.578 OA
ATOM     30  O           0     133.266 129.069 150.722  0.00  0.00    -0.578 OA
ATOM     31  O           0     131.326 129.223 149.289  0.00  0.00    -0.578 OA
ENDBRANCH  25  28
ENDBRANCH  23  24
ENDBRANCH  22  23
ENDBRANCH   6  22
BRANCH  18  32
ATOM     32  O           0     135.402 134.920 143.082  0.00  0.00    -0.362 OA
ATOM     33  H           0     134.533 135.159 143.431  0.00  0.00     0.213 HD
ENDBRANCH  18  32
BRANCH  18  34
ATOM     34  O           0     135.682 134.849 145.411  0.00  0.00    -0.362 OA
ATOM     35  H           0     135.464 135.780 145.266  0.00  0.00     0.213 HD
ENDBRANCH  18  34
TORSDOF 6
ENDMDL
MODEL 6
REMARK VINA RESULT:      -7.1      1.547      2.262
REMARK  6 active torsions:
REMARK  status: ('A' for Active; 'I' for Inactive)
REMARK    1  A    between atoms: C_6  and  C_7 
REMARK    2  A    between atoms: C_7  and  O_8 
REMARK    3  A    between atoms: O_8  and  C_9 
REMARK       I    between atoms: C_9  and  N_10 
REMARK    4  A    between atoms: N_10  and  S_11 
REMARK    5  A    between atoms: C_27  and  O_28 
REMARK    6  A    between atoms: C_27  and  O_29 
ROOT
ATOM      1  N           0     138.981 133.855 143.251  0.00  0.00    -0.235 N 
ATOM      2  H           0     138.810 134.388 142.458  0.00  0.00     0.174 HD
ATOM      3  H           0     139.867 133.492 143.409  0.00  0.00     0.174 HD
ATOM      4  C           0     138.023 133.634 144.107  0.00  0.00     0.672 C 
ATOM      5  N           0     136.746 134.136 143.930  0.00  0.00    -0.218 N 
ATOM      6  C           0     135.626 133.396 144.505  0.00  0.00     0.151 C 
ATOM      7  C           0     135.833 133.073 145.972  0.00  0.00     0.180 C 
ATOM      8  N           0     135.583 134.287 146.779  0.00  0.00    -0.216 N 
ATOM      9  C           0     136.521 134.321 147.780  0.00  0.00     0.670 C 
ATOM     10  N           0     136.401 135.020 148.873  0.00  0.00    -0.235 N 
ATOM     11  H           0     135.610 135.563 149.017  0.00  0.00     0.174 HD
ATOM     12  H           0     137.102 134.998 149.542  0.00  0.00     0.174 HD
ATOM     13  C           0     137.259 132.686 146.329  0.00  0.00     0.217 C 
ATOM     14  N           0     137.602 133.525 147.489  0.00  0.00    -0.191 N 
ATOM     15  N           0     138.216 132.885 145.238  0.00  0.00    -0.183 N 
ATOM     16  C           0     139.388 132.065 145.594  0.00  0.00     0.150 C 
ATOM     17  C           0     138.786 130.784 146.218  0.00  0.00     0.093 C 
ATOM     18  C           0     137.375 131.199 146.706  0.00  0.00     0.209 C 
ATOM     19  H           0     136.598 134.957 143.435  0.00  0.00     0.178 HD
ATOM     20  H           0     134.883 134.941 146.627  0.00  0.00     0.178 HD
ATOM     21  H           0     138.445 133.516 147.968  0.00  0.00     0.180 HD
ENDROOT
BRANCH   6  22
ATOM     22  C           0     135.448 132.088 143.733  0.00  0.00     0.208 C 
BRANCH  22  23
ATOM     23  O           0     135.438 132.364 142.308  0.00  0.00    -0.301 OA
BRANCH  23  24
ATOM     24  C           0     134.430 133.073 141.767  0.00  0.00     0.376 C 
ATOM     25  N           0     134.591 133.668 140.568  0.00  0.00    -0.211 N 
ATOM     26  H           0     135.434 133.587 140.097  0.00  0.00     0.186 HD
ATOM     27  O           0     133.372 133.175 142.358  0.00  0.00    -0.237 OA
BRANCH  25  28
ATOM     28  S           0     133.350 134.540 139.902  0.00  0.00     0.213 S 
ATOM     29  O           0     133.697 134.748 138.505  0.00  0.00    -0.578 OA
ATOM     30  O           0     132.150 133.732 140.060  0.00  0.00    -0.578 OA
ATOM     31  O           0     133.278 135.787 140.646  0.00  0.00    -0.578 OA
ENDBRANCH  25  28
ENDBRANCH  23  24
ENDBRANCH  22  23
ENDBRANCH   6  22
BRANCH  18  32
ATOM     32  O           0     137.268 131.030 148.121  0.00  0.00    -0.362 OA
ATOM     33  H           0     136.635 131.689 148.435  0.00  0.00     0.213 HD
ENDBRANCH  18  32
BRANCH  18  34
ATOM     34  O           0     136.370 130.437 146.035  0.00  0.00    -0.362 OA
ATOM     35  H           0     136.030 129.797 146.676  0.00  0.00     0.213 HD
ENDBRANCH  18  34
TORSDOF 6
ENDMDL
MODEL 7
REMARK VINA RESULT:      -7.1      2.036      3.559
REMARK  6 active torsions:
REMARK  status: ('A' for Active; 'I' for Inactive)
REMARK    1  A    between atoms: C_6  and  C_7 
REMARK    2  A    between atoms: C_7  and  O_8 
REMARK    3  A    between atoms: O_8  and  C_9 
REMARK       I    between atoms: C_9  and  N_10 
REMARK    4  A    between atoms: N_10  and  S_11 
REMARK    5  A    between atoms: C_27  and  O_28 
REMARK    6  A    between atoms: C_27  and  O_29 
ROOT
ATOM      1  N           0     136.250 134.640 147.927  0.00  0.00    -0.235 N 
ATOM      2  H           0     135.385 135.041 147.743  0.00  0.00     0.174 HD
ATOM      3  H           0     136.832 135.029 148.600  0.00  0.00     0.174 HD
ATOM      4  C           0     136.626 133.575 147.277  0.00  0.00     0.672 C 
ATOM      5  N           0     135.829 132.980 146.314  0.00  0.00    -0.218 N 
ATOM      6  C           0     136.483 132.248 145.232  0.00  0.00     0.151 C 
ATOM      7  C           0     137.490 131.234 145.738  0.00  0.00     0.180 C 
ATOM      8  N           0     136.773 130.047 146.250  0.00  0.00    -0.216 N 
ATOM      9  C           0     137.420 129.628 147.386  0.00  0.00     0.670 C 
ATOM     10  N           0     137.306 128.435 147.896  0.00  0.00    -0.235 N 
ATOM     11  H           0     136.732 127.778 147.471  0.00  0.00     0.174 HD
ATOM     12  H           0     137.792 128.203 148.702  0.00  0.00     0.174 HD
ATOM     13  C           0     138.305 131.709 146.931  0.00  0.00     0.217 C 
ATOM     14  N           0     138.205 130.622 147.917  0.00  0.00    -0.191 N 
ATOM     15  N           0     137.838 132.976 147.498  0.00  0.00    -0.183 N 
ATOM     16  C           0     138.966 133.483 148.300  0.00  0.00     0.150 C 
ATOM     17  C           0     140.221 133.125 147.467  0.00  0.00     0.093 C 
ATOM     18  C           0     139.780 131.947 146.562  0.00  0.00     0.209 C 
ATOM     19  H           0     134.863 133.047 146.357  0.00  0.00     0.178 HD
ATOM     20  H           0     135.986 129.639 145.856  0.00  0.00     0.178 HD
ATOM     21  H           0     138.624 130.607 148.792  0.00  0.00     0.180 HD
ENDROOT
BRANCH   6  22
ATOM     22  C           0     137.202 133.246 144.323  0.00  0.00     0.208 C 
BRANCH  22  23
ATOM     23  O           0     136.703 133.113 142.967  0.00  0.00    -0.301 OA
BRANCH  23  24
ATOM     24  C           0     135.525 133.666 142.624  0.00  0.00     0.376 C 
ATOM     25  N           0     135.075 133.565 141.358  0.00  0.00    -0.211 N 
ATOM     26  H           0     135.601 133.093 140.693  0.00  0.00     0.186 HD
ATOM     27  O           0     134.866 134.257 143.458  0.00  0.00    -0.237 OA
BRANCH  25  28
ATOM     28  S           0     133.625 134.245 140.937  0.00  0.00     0.213 S 
ATOM     29  O           0     132.592 133.404 141.520  0.00  0.00    -0.578 OA
ATOM     30  O           0     133.625 135.589 141.494  0.00  0.00    -0.578 OA
ATOM     31  O           0     133.580 134.250 139.483  0.00  0.00    -0.578 OA
ENDBRANCH  25  28
ENDBRANCH  23  24
ENDBRANCH  22  23
ENDBRANCH   6  22
BRANCH  18  32
ATOM     32  O           0     140.562 130.785 146.841  0.00  0.00    -0.362 OA
ATOM     33  H           0     141.171 131.021 147.554  0.00  0.00     0.213 HD
ENDBRANCH  18  32
BRANCH  18  34
ATOM     34  O           0     139.895 132.307 145.184  0.00  0.00    -0.362 OA
ATOM     35  H           0     138.996 132.444 144.854  0.00  0.00     0.213 HD
ENDBRANCH  18  34
TORSDOF 6
ENDMDL
MODEL 8
REMARK VINA RESULT:      -7.1      3.511      6.285
REMARK  6 active torsions:
REMARK  status: ('A' for Active; 'I' for Inactive)
REMARK    1  A    between atoms: C_6  and  C_7 
REMARK    2  A    between atoms: C_7  and  O_8 
REMARK    3  A    between atoms: O_8  and  C_9 
REMARK       I    between atoms: C_9  and  N_10 
REMARK    4  A    between atoms: N_10  and  S_11 
REMARK    5  A    between atoms: C_27  and  O_28 
REMARK    6  A    between atoms: C_27  and  O_29 
ROOT
ATOM      1  N           0     136.021 135.055 148.002  0.00  0.00    -0.235 N 
ATOM      2  H           0     135.917 135.342 148.924  0.00  0.00     0.174 HD
ATOM      3  H           0     135.731 135.633 147.278  0.00  0.00     0.174 HD
ATOM      4  C           0     136.557 133.897 147.738  0.00  0.00     0.672 C 
ATOM      5  N           0     136.993 133.041 148.735  0.00  0.00    -0.218 N 
ATOM      6  C           0     136.985 131.606 148.466  0.00  0.00     0.151 C 
ATOM      7  C           0     137.682 131.250 147.168  0.00  0.00     0.180 C 
ATOM      8  N           0     139.146 131.311 147.368  0.00  0.00    -0.216 N 
ATOM      9  C           0     139.697 131.867 146.240  0.00  0.00     0.670 C 
ATOM     10  N           0     140.950 131.750 145.903  0.00  0.00    -0.235 N 
ATOM     11  H           0     141.558 131.247 146.467  0.00  0.00     0.174 HD
ATOM     12  H           0     141.275 132.168 145.091  0.00  0.00     0.174 HD
ATOM     13  C           0     137.428 132.234 146.036  0.00  0.00     0.217 C 
ATOM     14  N           0     138.763 132.559 145.508  0.00  0.00    -0.191 N 
ATOM     15  N           0     136.721 133.446 146.454  0.00  0.00    -0.183 N 
ATOM     16  C           0     136.183 134.030 145.213  0.00  0.00     0.150 C 
ATOM     17  C           0     135.732 132.809 144.377  0.00  0.00     0.093 C 
ATOM     18  C           0     136.561 131.620 144.924  0.00  0.00     0.209 C 
ATOM     19  H           0     137.296 133.386 149.589  0.00  0.00     0.178 HD
ATOM     20  H           0     139.629 131.014 148.155  0.00  0.00     0.178 HD
ATOM     21  H           0     138.952 133.157 144.768  0.00  0.00     0.180 HD
ENDROOT
BRANCH   6  22
ATOM     22  C           0     135.534 131.125 148.394  0.00  0.00     0.208 C 
BRANCH  22  23
ATOM     23  O           0     135.503 129.674 148.424  0.00  0.00    -0.301 OA
BRANCH  23  24
ATOM     24  C           0     134.400 129.033 148.853  0.00  0.00     0.376 C 
ATOM     25  N           0     133.197 129.637 148.779  0.00  0.00    -0.211 N 
ATOM     26  H           0     133.127 130.534 148.418  0.00  0.00     0.186 HD
ATOM     27  O           0     134.488 127.908 149.306  0.00  0.00    -0.237 OA
BRANCH  25  28
ATOM     28  S           0     131.840 128.847 149.307  0.00  0.00     0.213 S 
ATOM     29  O           0     130.741 129.791 149.182  0.00  0.00    -0.578 OA
ATOM     30  O           0     131.676 127.689 148.441  0.00  0.00    -0.578 OA
ATOM     31  O           0     132.094 128.472 150.689  0.00  0.00    -0.578 OA
ENDBRANCH  25  28
ENDBRANCH  23  24
ENDBRANCH  22  23
ENDBRANCH   6  22
BRANCH  18  32
ATOM     32  O           0     137.383 131.069 143.892  0.00  0.00    -0.362 OA
ATOM     33  H           0     137.403 131.717 143.175  0.00  0.00     0.213 HD
ENDBRANCH  18  32
BRANCH  18  34
ATOM     34  O           0     135.699 130.616 145.463  0.00  0.00    -0.362 OA
ATOM     35  H           0     135.751 129.854 144.870  0.00  0.00     0.213 HD
ENDBRANCH  18  34
TORSDOF 6
ENDMDL
MODEL 9
REMARK VINA RESULT:      -7.1      2.140      3.175
REMARK  6 active torsions:
REMARK  status: ('A' for Active; 'I' for Inactive)
REMARK    1  A    between atoms: C_6  and  C_7 
REMARK    2  A    between atoms: C_7  and  O_8 
REMARK    3  A    between atoms: O_8  and  C_9 
REMARK       I    between atoms: C_9  and  N_10 
REMARK    4  A    between atoms: N_10  and  S_11 
REMARK    5  A    between atoms: C_27  and  O_28 
REMARK    6  A    between atoms: C_27  and  O_29 
ROOT
ATOM      1  N           0     134.093 128.653 147.037  0.00  0.00    -0.235 N 
ATOM      2  H           0     133.628 128.185 146.325  0.00  0.00     0.174 HD
ATOM      3  H           0     133.873 128.468 147.964  0.00  0.00     0.174 HD
ATOM      4  C           0     135.018 129.526 146.748  0.00  0.00     0.672 C 
ATOM      5  N           0     135.372 129.819 145.443  0.00  0.00    -0.218 N 
ATOM      6  C           0     135.894 131.152 145.151  0.00  0.00     0.151 C 
ATOM      7  C           0     137.029 131.549 146.074  0.00  0.00     0.180 C 
ATOM      8  N           0     138.266 130.856 145.652  0.00  0.00    -0.216 N 
ATOM      9  C           0     138.933 130.469 146.787  0.00  0.00     0.670 C 
ATOM     10  N           0     140.200 130.165 146.825  0.00  0.00    -0.235 N 
ATOM     11  H           0     140.732 130.205 146.015  0.00  0.00     0.174 HD
ATOM     12  H           0     140.610 129.899 147.662  0.00  0.00     0.174 HD
ATOM     13  C           0     136.840 131.109 147.517  0.00  0.00     0.217 C 
ATOM     14  N           0     138.101 130.442 147.880  0.00  0.00    -0.191 N 
ATOM     15  N           0     135.698 130.215 147.717  0.00  0.00    -0.183 N 
ATOM     16  C           0     135.411 130.267 149.162  0.00  0.00     0.150 C 
ATOM     17  C           0     135.642 131.748 149.546  0.00  0.00     0.093 C 
ATOM     18  C           0     136.592 132.303 148.455  0.00  0.00     0.209 C 
ATOM     19  H           0     135.275 129.158 144.740  0.00  0.00     0.178 HD
ATOM     20  H           0     138.553 130.702 144.738  0.00  0.00     0.178 HD
ATOM     21  H           0     138.310 130.052 148.743  0.00  0.00     0.180 HD
ENDROOT
BRANCH   6  22
ATOM     22  C           0     134.762 132.169 145.296  0.00  0.00     0.208 C 
BRANCH  22  23
ATOM     23  O           0     135.216 133.469 144.836  0.00  0.00    -0.301 OA
BRANCH  23  24
ATOM     24  C           0     135.032 133.830 143.553  0.00  0.00     0.376 C 
ATOM     25  N           0     133.872 133.540 142.929  0.00  0.00    -0.211 N 
ATOM     26  H           0     133.171 133.070 143.406  0.00  0.00     0.186 HD
ATOM     27  O           0     135.911 134.420 142.955  0.00  0.00    -0.237 OA
BRANCH  25  28
ATOM     28  S           0     133.646 133.986 141.350  0.00  0.00     0.213 S 
ATOM     29  O           0     132.373 133.416 140.940  0.00  0.00    -0.578 OA
ATOM     30  O           0     133.633 135.441 141.332  0.00  0.00    -0.578 OA
ATOM     31  O           0     134.766 133.435 140.604  0.00  0.00    -0.578 OA
ENDBRANCH  25  28
ENDBRANCH  23  24
ENDBRANCH  22  23
ENDBRANCH   6  22
BRANCH  18  32
ATOM     32  O           0     137.818 132.746 149.040  0.00  0.00    -0.362 OA
ATOM     33  H           0     137.674 133.654 149.337  0.00  0.00     0.213 HD
ENDBRANCH  18  32
BRANCH  18  34
ATOM     34  O           0     135.964 133.371 147.743  0.00  0.00    -0.362 OA
ATOM     35  H           0     136.522 133.563 146.976  0.00  0.00     0.213 HD
ENDBRANCH  18  34
TORSDOF 6
ENDMDL
