# created with PyMOL 2.3.4
@<TRIPOS>MOLECULE
ligand_out_0001
28 30 1                 
SMALL
USER_CHARGES
@<TRIPOS>ATOM
1	   N	135.928	134.702	146.890	N.3	1	UNK0	-0.235	
2	   N	136.337	135.041	144.598	N.3	1	UNK0	-0.218	
3	   N	134.841	133.887	142.165	N.3	1	UNK0	-0.216	
4	   N	132.616	133.194	141.755	N.3	1	UNK0	-0.235	
5	   N	133.855	132.457	143.630	N.3	1	UNK0	-0.191	
6	   N	135.473	133.006	145.342	N.3	1	UNK0	-0.183	
7	   C	135.910	134.265	145.662	C.3	1	UNK0	0.672	
8	   C	136.877	134.364	143.422	C.3	1	UNK0	0.150	
9	   C	135.963	133.272	142.905	C.3	1	UNK0	0.180	
10	   C	133.704	133.180	142.473	C.3	1	UNK0	0.670	
11	   C	135.281	132.462	143.996	C.3	1	UNK0	0.217	
12	   C	135.153	131.898	146.260	C.3	1	UNK0	0.150	
13	   C	135.730	130.643	145.561	C.3	1	UNK0	0.093	
14	   C	135.811	131.021	144.059	C.3	1	UNK0	0.209	
15	   C	138.228	133.745	143.786	C.2	1	UNK0	0.192	
16	   O	134.989	130.148	143.282	O.2	1	UNK0	-0.362	
17	   O	137.164	130.968	143.605	O.2	1	UNK0	-0.362	
18	   O	138.730	133.005	142.670	O.2	1	UNK0	-0.399	
19	   H	136.249	135.596	147.082	 H	1	UNK0	0.174	
20	   H	135.618	134.132	147.612	 H	1	UNK0	0.174	
21	   H	132.575	133.728	140.946	 H	1	UNK0	0.174	
22	   H	131.847	132.670	142.029	 H	1	UNK0	0.174	
23	   H	136.279	136.008	144.634	 H	1	UNK0	0.178	
24	   H	134.896	134.652	141.571	 H	1	UNK0	0.178	
25	   H	133.145	132.015	144.119	 H	1	UNK0	0.180	
26	   H	135.287	129.246	143.465	 H	1	UNK0	0.213	
27	   H	137.616	130.305	144.147	 H	1	UNK0	0.213	
28	   H	139.015	132.147	143.009	 H	1	UNK0	0.209	
@<TRIPOS>BOND
1 1 7 1
2 1 19 1
3 1 20 1
4 2 8 1
5 2 23 1
6 3 10 1
7 3 24 1
8 4 21 1
9 4 22 1
10 5 25 1
11 6 12 1
12 2 7 1
13 6 7 1
14 8 9 1
15 8 15 1
16 3 9 1
17 9 11 1
18 4 10 1
19 5 10 1
20 5 11 1
21 6 11 1
22 11 14 1
23 12 13 1
24 13 14 1
25 14 16 2
26 14 17 2
27 15 18 2
28 16 26 1
29 17 27 1
30 18 28 1
@<TRIPOS>SUBSTRUCTURE
1	UNK0	1	GROUP	1 ****	UNK
