MODEL 1
REMARK VINA RESULT:      -7.3      0.000      0.000
REMARK  4 active torsions:
REMARK  status: ('A' for Active; 'I' for Inactive)
REMARK    1  A    between atoms: C_6  and  C_7 
REMARK    2  A    between atoms: C_7  and  O_8 
REMARK    3  A    between atoms: C_20  and  O_21 
REMARK    4  A    between atoms: C_20  and  O_22 
ROOT
ATOM      1  N           0     135.928 134.702 146.890  0.00  0.00    -0.235 N 
ATOM      2  H           0     136.249 135.596 147.082  0.00  0.00     0.174 HD
ATOM      3  H           0     135.618 134.132 147.612  0.00  0.00     0.174 HD
ATOM      4  C           0     135.910 134.265 145.662  0.00  0.00     0.672 C 
ATOM      5  N           0     136.337 135.041 144.598  0.00  0.00    -0.218 N 
ATOM      6  C           0     136.877 134.364 143.422  0.00  0.00     0.150 C 
ATOM      7  C           0     135.963 133.272 142.905  0.00  0.00     0.180 C 
ATOM      8  N           0     134.841 133.887 142.165  0.00  0.00    -0.216 N 
ATOM      9  C           0     133.704 133.180 142.473  0.00  0.00     0.670 C 
ATOM     10  N           0     132.616 133.194 141.755  0.00  0.00    -0.235 N 
ATOM     11  H           0     132.575 133.728 140.946  0.00  0.00     0.174 HD
ATOM     12  H           0     131.847 132.670 142.029  0.00  0.00     0.174 HD
ATOM     13  C           0     135.281 132.462 143.996  0.00  0.00     0.217 C 
ATOM     14  N           0     133.855 132.457 143.630  0.00  0.00    -0.191 N 
ATOM     15  N           0     135.473 133.006 145.342  0.00  0.00    -0.183 N 
ATOM     16  C           0     135.153 131.898 146.260  0.00  0.00     0.150 C 
ATOM     17  C           0     135.730 130.643 145.561  0.00  0.00     0.093 C 
ATOM     18  C           0     135.811 131.021 144.059  0.00  0.00     0.209 C 
ATOM     19  H           0     136.279 136.008 144.634  0.00  0.00     0.178 HD
ATOM     20  H           0     134.896 134.652 141.571  0.00  0.00     0.178 HD
ATOM     21  H           0     133.145 132.015 144.119  0.00  0.00     0.180 HD
ENDROOT
BRANCH  18  22
ATOM     22  O           0     134.989 130.148 143.282  0.00  0.00    -0.362 OA
ATOM     23  H           0     135.287 129.246 143.465  0.00  0.00     0.213 HD
ENDBRANCH  18  22
BRANCH  18  24
ATOM     24  O           0     137.164 130.968 143.605  0.00  0.00    -0.362 OA
ATOM     25  H           0     137.616 130.305 144.147  0.00  0.00     0.213 HD
ENDBRANCH  18  24
BRANCH   6  26
ATOM     26  C           0     138.228 133.745 143.786  0.00  0.00     0.192 C 
BRANCH  26  27
ATOM     27  O           0     138.730 133.005 142.670  0.00  0.00    -0.399 OA
ATOM     28  H           0     139.015 132.147 143.009  0.00  0.00     0.209 HD
ENDBRANCH  26  27
ENDBRANCH   6  26
TORSDOF 4
ENDMDL
MODEL 2
REMARK VINA RESULT:      -7.1      1.747      2.531
REMARK  4 active torsions:
REMARK  status: ('A' for Active; 'I' for Inactive)
REMARK    1  A    between atoms: C_6  and  C_7 
REMARK    2  A    between atoms: C_7  and  O_8 
REMARK    3  A    between atoms: C_20  and  O_21 
REMARK    4  A    between atoms: C_20  and  O_22 
ROOT
ATOM      1  N           0     134.774 131.930 146.563  0.00  0.00    -0.235 N 
ATOM      2  H           0     135.020 131.984 147.499  0.00  0.00     0.174 HD
ATOM      3  H           0     134.095 131.301 146.274  0.00  0.00     0.174 HD
ATOM      4  C           0     135.355 132.707 145.692  0.00  0.00     0.672 C 
ATOM      5  N           0     136.325 133.626 146.054  0.00  0.00    -0.218 N 
ATOM      6  C           0     137.338 133.988 145.067  0.00  0.00     0.150 C 
ATOM      7  C           0     136.736 134.401 143.738  0.00  0.00     0.180 C 
ATOM      8  N           0     136.203 135.774 143.851  0.00  0.00    -0.216 N 
ATOM      9  C           0     135.019 135.818 143.156  0.00  0.00     0.670 C 
ATOM     10  N           0     134.458 136.916 142.734  0.00  0.00    -0.235 N 
ATOM     11  H           0     134.878 137.773 142.905  0.00  0.00     0.174 HD
ATOM     12  H           0     133.619 136.876 142.248  0.00  0.00     0.174 HD
ATOM     13  C           0     135.531 133.574 143.317  0.00  0.00     0.217 C 
ATOM     14  N           0     134.500 134.562 142.962  0.00  0.00    -0.191 N 
ATOM     15  N           0     135.048 132.664 144.357  0.00  0.00    -0.183 N 
ATOM     16  C           0     134.218 131.671 143.650  0.00  0.00     0.150 C 
ATOM     17  C           0     134.972 131.416 142.324  0.00  0.00     0.093 C 
ATOM     18  C           0     135.841 132.681 142.105  0.00  0.00     0.209 C 
ATOM     19  H           0     136.332 134.017 146.942  0.00  0.00     0.178 HD
ATOM     20  H           0     136.614 136.511 144.328  0.00  0.00     0.178 HD
ATOM     21  H           0     133.607 134.361 142.642  0.00  0.00     0.180 HD
ENDROOT
BRANCH  18  22
ATOM     22  O           0     135.469 133.336 140.890  0.00  0.00    -0.362 OA
ATOM     23  H           0     135.972 132.914 140.180  0.00  0.00     0.213 HD
ENDBRANCH  18  22
BRANCH  18  24
ATOM     24  O           0     137.227 132.337 142.082  0.00  0.00    -0.362 OA
ATOM     25  H           0     137.432 132.060 141.178  0.00  0.00     0.213 HD
ENDBRANCH  18  24
BRANCH   6  26
ATOM     26  C           0     138.258 132.788 144.840  0.00  0.00     0.192 C 
BRANCH  26  27
ATOM     27  O           0     139.188 133.090 143.797  0.00  0.00    -0.399 OA
ATOM     28  H           0     140.070 133.046 144.188  0.00  0.00     0.209 HD
ENDBRANCH  26  27
ENDBRANCH   6  26
TORSDOF 4
ENDMDL
MODEL 3
REMARK VINA RESULT:      -6.7      1.852      3.689
REMARK  4 active torsions:
REMARK  status: ('A' for Active; 'I' for Inactive)
REMARK    1  A    between atoms: C_6  and  C_7 
REMARK    2  A    between atoms: C_7  and  O_8 
REMARK    3  A    between atoms: C_20  and  O_21 
REMARK    4  A    between atoms: C_20  and  O_22 
ROOT
ATOM      1  N           0     134.786 136.655 142.962  0.00  0.00    -0.235 N 
ATOM      2  H           0     133.975 137.064 142.624  0.00  0.00     0.174 HD
ATOM      3  H           0     135.551 137.207 143.186  0.00  0.00     0.174 HD
ATOM      4  C           0     134.847 135.363 143.120  0.00  0.00     0.672 C 
ATOM      5  N           0     133.780 134.532 142.821  0.00  0.00    -0.218 N 
ATOM      6  C           0     134.065 133.158 142.417  0.00  0.00     0.150 C 
ATOM      7  C           0     134.992 132.446 143.383  0.00  0.00     0.180 C 
ATOM      8  N           0     134.230 132.047 144.584  0.00  0.00    -0.216 N 
ATOM      9  C           0     135.037 132.256 145.676  0.00  0.00     0.670 C 
ATOM     10  N           0     134.853 131.697 146.839  0.00  0.00    -0.235 N 
ATOM     11  H           0     134.110 131.090 146.974  0.00  0.00     0.174 HD
ATOM     12  H           0     135.463 131.888 147.570  0.00  0.00     0.174 HD
ATOM     13  C           0     136.109 133.321 143.932  0.00  0.00     0.217 C 
ATOM     14  N           0     136.059 133.127 145.390  0.00  0.00    -0.191 N 
ATOM     15  N           0     135.973 134.737 143.588  0.00  0.00    -0.183 N 
ATOM     16  C           0     137.311 135.319 143.797  0.00  0.00     0.150 C 
ATOM     17  C           0     138.287 134.225 143.302  0.00  0.00     0.093 C 
ATOM     18  C           0     137.486 132.900 143.395  0.00  0.00     0.209 C 
ATOM     19  H           0     132.868 134.856 142.877  0.00  0.00     0.178 HD
ATOM     20  H           0     133.324 131.701 144.600  0.00  0.00     0.178 HD
ATOM     21  H           0     136.650 133.539 146.039  0.00  0.00     0.180 HD
ENDROOT
BRANCH  18  22
ATOM     22  O           0     138.124 131.995 144.298  0.00  0.00    -0.362 OA
ATOM     23  H           0     138.250 131.164 143.820  0.00  0.00     0.213 HD
ENDBRANCH  18  22
BRANCH  18  24
ATOM     24  O           0     137.355 132.306 142.102  0.00  0.00    -0.362 OA
ATOM     25  H           0     136.692 132.822 141.623  0.00  0.00     0.213 HD
ENDBRANCH  18  24
BRANCH   6  26
ATOM     26  C           0     134.715 133.174 141.032  0.00  0.00     0.192 C 
BRANCH  26  27
ATOM     27  O           0     134.037 134.117 140.199  0.00  0.00    -0.399 OA
ATOM     28  H           0     134.141 134.983 140.614  0.00  0.00     0.209 HD
ENDBRANCH  26  27
ENDBRANCH   6  26
TORSDOF 4
ENDMDL
MODEL 4
REMARK VINA RESULT:      -6.4      1.915      2.190
REMARK  4 active torsions:
REMARK  status: ('A' for Active; 'I' for Inactive)
REMARK    1  A    between atoms: C_6  and  C_7 
REMARK    2  A    between atoms: C_7  and  O_8 
REMARK    3  A    between atoms: C_20  and  O_21 
REMARK    4  A    between atoms: C_20  and  O_22 
ROOT
ATOM      1  N           0     135.922 134.759 147.580  0.00  0.00    -0.235 N 
ATOM      2  H           0     136.312 135.645 147.511  0.00  0.00     0.174 HD
ATOM      3  H           0     135.353 134.537 148.333  0.00  0.00     0.174 HD
ATOM      4  C           0     136.162 133.869 146.659  0.00  0.00     0.672 C 
ATOM      5  N           0     136.963 134.139 145.563  0.00  0.00    -0.218 N 
ATOM      6  C           0     137.685 133.031 144.944  0.00  0.00     0.150 C 
ATOM      7  C           0     136.786 131.855 144.622  0.00  0.00     0.180 C 
ATOM      8  N           0     136.001 132.160 143.408  0.00  0.00    -0.216 N 
ATOM      9  C           0     134.731 131.673 143.601  0.00  0.00     0.670 C 
ATOM     10  N           0     133.884 131.436 142.639  0.00  0.00    -0.235 N 
ATOM     11  H           0     134.136 131.602 141.718  0.00  0.00     0.174 HD
ATOM     12  H           0     133.001 131.090 142.845  0.00  0.00     0.174 HD
ATOM     13  C           0     135.729 131.573 145.679  0.00  0.00     0.217 C 
ATOM     14  N           0     134.465 131.469 144.932  0.00  0.00    -0.191 N 
ATOM     15  N           0     135.641 132.603 146.715  0.00  0.00    -0.183 N 
ATOM     16  C           0     134.930 131.965 147.839  0.00  0.00     0.150 C 
ATOM     17  C           0     135.475 130.518 147.865  0.00  0.00     0.093 C 
ATOM     18  C           0     136.003 130.259 146.430  0.00  0.00     0.209 C 
ATOM     19  H           0     137.042 135.042 145.216  0.00  0.00     0.178 HD
ATOM     20  H           0     136.323 132.620 142.618  0.00  0.00     0.178 HD
ATOM     21  H           0     133.593 131.283 145.313  0.00  0.00     0.180 HD
ENDROOT
BRANCH  18  22
ATOM     22  O           0     135.292 129.177 145.826  0.00  0.00    -0.362 OA
ATOM     23  H           0     135.155 128.513 146.516  0.00  0.00     0.213 HD
ENDBRANCH  18  22
BRANCH  18  24
ATOM     24  O           0     137.404 129.985 146.456  0.00  0.00    -0.362 OA
ATOM     25  H           0     137.626 129.580 145.606  0.00  0.00     0.213 HD
ENDBRANCH  18  24
BRANCH   6  26
ATOM     26  C           0     138.785 132.564 145.899  0.00  0.00     0.192 C 
BRANCH  26  27
ATOM     27  O           0     139.438 131.417 145.350  0.00  0.00    -0.399 OA
ATOM     28  H           0     140.146 131.744 144.781  0.00  0.00     0.209 HD
ENDBRANCH  26  27
ENDBRANCH   6  26
TORSDOF 4
ENDMDL
MODEL 5
REMARK VINA RESULT:      -6.2      8.462     10.790
REMARK  4 active torsions:
REMARK  status: ('A' for Active; 'I' for Inactive)
REMARK    1  A    between atoms: C_6  and  C_7 
REMARK    2  A    between atoms: C_7  and  O_8 
REMARK    3  A    between atoms: C_20  and  O_21 
REMARK    4  A    between atoms: C_20  and  O_22 
ROOT
ATOM      1  N           0     132.274 137.384 132.452  0.00  0.00    -0.235 N 
ATOM      2  H           0     131.519 137.983 132.346  0.00  0.00     0.174 HD
ATOM      3  H           0     133.031 137.445 131.849  0.00  0.00     0.174 HD
ATOM      4  C           0     132.272 136.497 133.407  0.00  0.00     0.672 C 
ATOM      5  N           0     131.218 136.373 134.296  0.00  0.00    -0.218 N 
ATOM      6  C           0     130.964 135.063 134.891  0.00  0.00     0.150 C 
ATOM      7  C           0     132.207 134.451 135.506  0.00  0.00     0.180 C 
ATOM      8  N           0     132.480 135.104 136.803  0.00  0.00    -0.216 N 
ATOM      9  C           0     133.839 135.267 136.907  0.00  0.00     0.670 C 
ATOM     10  N           0     134.469 135.468 138.031  0.00  0.00    -0.235 N 
ATOM     11  H           0     133.974 135.507 138.864  0.00  0.00     0.174 HD
ATOM     12  H           0     135.433 135.575 138.034  0.00  0.00     0.174 HD
ATOM     13  C           0     133.478 134.685 134.704  0.00  0.00     0.217 C 
ATOM     14  N           0     134.453 135.196 135.682  0.00  0.00    -0.191 N 
ATOM     15  N           0     133.311 135.623 133.593  0.00  0.00    -0.183 N 
ATOM     16  C           0     134.460 135.379 132.702  0.00  0.00     0.150 C 
ATOM     17  C           0     134.655 133.845 132.738  0.00  0.00     0.093 C 
ATOM     18  C           0     134.004 133.387 134.069  0.00  0.00     0.209 C 
ATOM     19  H           0     130.663 137.136 134.517  0.00  0.00     0.178 HD
ATOM     20  H           0     131.819 135.369 137.462  0.00  0.00     0.178 HD
ATOM     21  H           0     135.373 135.436 135.493  0.00  0.00     0.180 HD
ENDROOT
BRANCH  18  22
ATOM     22  O           0     134.979 132.772 134.914  0.00  0.00    -0.362 OA
ATOM     23  H           0     134.514 132.478 135.709  0.00  0.00     0.213 HD
ENDBRANCH  18  22
BRANCH  18  24
ATOM     24  O           0     132.926 132.487 133.812  0.00  0.00    -0.362 OA
ATOM     25  H           0     132.124 132.904 134.158  0.00  0.00     0.213 HD
ENDBRANCH  18  24
BRANCH   6  26
ATOM     26  C           0     130.437 134.122 133.806  0.00  0.00     0.192 C 
BRANCH  26  27
ATOM     27  O           0     130.159 132.842 134.378  0.00  0.00    -0.399 OA
ATOM     28  H           0     130.409 132.181 133.719  0.00  0.00     0.209 HD
ENDBRANCH  26  27
ENDBRANCH   6  26
TORSDOF 4
ENDMDL
MODEL 6
REMARK VINA RESULT:      -6.1      2.831      4.396
REMARK  4 active torsions:
REMARK  status: ('A' for Active; 'I' for Inactive)
REMARK    1  A    between atoms: C_6  and  C_7 
REMARK    2  A    between atoms: C_7  and  O_8 
REMARK    3  A    between atoms: C_20  and  O_21 
REMARK    4  A    between atoms: C_20  and  O_22 
ROOT
ATOM      1  N           0     135.151 130.553 143.298  0.00  0.00    -0.235 N 
ATOM      2  H           0     134.997 130.401 142.353  0.00  0.00     0.174 HD
ATOM      3  H           0     134.683 130.018 143.959  0.00  0.00     0.174 HD
ATOM      4  C           0     135.990 131.473 143.682  0.00  0.00     0.672 C 
ATOM      5  N           0     136.686 132.259 142.779  0.00  0.00    -0.218 N 
ATOM      6  C           0     137.086 133.601 143.193  0.00  0.00     0.150 C 
ATOM      7  C           0     137.814 133.609 144.523  0.00  0.00     0.180 C 
ATOM      8  N           0     139.202 133.144 144.319  0.00  0.00    -0.216 N 
ATOM      9  C           0     139.533 132.345 145.387  0.00  0.00     0.670 C 
ATOM     10  N           0     140.756 132.057 145.735  0.00  0.00    -0.235 N 
ATOM     11  H           0     141.502 132.415 145.229  0.00  0.00     0.174 HD
ATOM     12  H           0     140.920 131.486 146.502  0.00  0.00     0.174 HD
ATOM     13  C           0     137.250 132.637 145.547  0.00  0.00     0.217 C 
ATOM     14  N           0     138.417 131.887 146.041  0.00  0.00    -0.191 N 
ATOM     15  N           0     136.237 131.730 145.005  0.00  0.00    -0.183 N 
ATOM     16  C           0     135.512 131.209 146.179  0.00  0.00     0.150 C 
ATOM     17  C           0     135.408 132.421 147.135  0.00  0.00     0.093 C 
ATOM     18  C           0     136.564 133.366 146.714  0.00  0.00     0.209 C 
ATOM     19  H           0     136.902 131.925 141.894  0.00  0.00     0.178 HD
ATOM     20  H           0     139.776 133.363 143.569  0.00  0.00     0.178 HD
ATOM     21  H           0     138.401 131.191 146.716  0.00  0.00     0.180 HD
ENDROOT
BRANCH  18  22
ATOM     22  O           0     137.476 133.549 147.799  0.00  0.00    -0.362 OA
ATOM     23  H           0     137.069 134.187 148.402  0.00  0.00     0.213 HD
ENDBRANCH  18  22
BRANCH  18  24
ATOM     24  O           0     136.046 134.623 146.279  0.00  0.00    -0.362 OA
ATOM     25  H           0     135.885 135.151 147.075  0.00  0.00     0.213 HD
ENDBRANCH  18  24
BRANCH   6  26
ATOM     26  C           0     135.835 134.474 143.312  0.00  0.00     0.192 C 
BRANCH  26  27
ATOM     27  O           0     136.217 135.814 143.630  0.00  0.00    -0.399 OA
ATOM     28  H           0     135.674 136.089 144.380  0.00  0.00     0.209 HD
ENDBRANCH  26  27
ENDBRANCH   6  26
TORSDOF 4
ENDMDL
MODEL 7
REMARK VINA RESULT:      -6.0      9.488     11.087
REMARK  4 active torsions:
REMARK  status: ('A' for Active; 'I' for Inactive)
REMARK    1  A    between atoms: C_6  and  C_7 
REMARK    2  A    between atoms: C_7  and  O_8 
REMARK    3  A    between atoms: C_20  and  O_21 
REMARK    4  A    between atoms: C_20  and  O_22 
ROOT
ATOM      1  N           0     134.494 132.868 132.657  0.00  0.00    -0.235 N 
ATOM      2  H           0     134.537 132.115 132.048  0.00  0.00     0.174 HD
ATOM      3  H           0     135.304 133.343 132.900  0.00  0.00     0.174 HD
ATOM      4  C           0     133.346 133.243 133.148  0.00  0.00     0.672 C 
ATOM      5  N           0     132.162 132.601 132.828  0.00  0.00    -0.218 N 
ATOM      6  C           0     131.079 132.618 133.808  0.00  0.00     0.150 C 
ATOM      7  C           0     130.767 134.014 134.309  0.00  0.00     0.180 C 
ATOM      8  N           0     129.990 134.738 133.281  0.00  0.00    -0.216 N 
ATOM      9  C           0     130.445 136.033 133.254  0.00  0.00     0.670 C 
ATOM     10  N           0     129.777 137.033 132.749  0.00  0.00    -0.235 N 
ATOM     11  H           0     128.900 136.885 132.363  0.00  0.00     0.174 HD
ATOM     12  H           0     130.156 137.926 132.763  0.00  0.00     0.174 HD
ATOM     13  C           0     131.994 134.888 134.522  0.00  0.00     0.217 C 
ATOM     14  N           0     131.689 136.146 133.821  0.00  0.00    -0.191 N 
ATOM     15  N           0     133.235 134.296 134.019  0.00  0.00    -0.183 N 
ATOM     16  C           0     134.319 135.033 134.692  0.00  0.00     0.150 C 
ATOM     17  C           0     133.793 135.262 136.129  0.00  0.00     0.093 C 
ATOM     18  C           0     132.250 135.167 136.012  0.00  0.00     0.209 C 
ATOM     19  H           0     132.056 132.152 131.975  0.00  0.00     0.178 HD
ATOM     20  H           0     129.287 134.366 132.727  0.00  0.00     0.178 HD
ATOM     21  H           0     132.267 136.923 133.772  0.00  0.00     0.180 HD
ENDROOT
BRANCH  18  22
ATOM     22  O           0     131.644 136.401 136.404  0.00  0.00    -0.362 OA
ATOM     23  H           0     130.763 136.418 136.005  0.00  0.00     0.213 HD
ENDBRANCH  18  22
BRANCH  18  24
ATOM     24  O           0     131.755 134.092 136.811  0.00  0.00    -0.362 OA
ATOM     25  H           0     132.265 134.097 137.634  0.00  0.00     0.213 HD
ENDBRANCH  18  24
BRANCH   6  26
ATOM     26  C           0     131.477 131.745 134.999  0.00  0.00     0.192 C 
BRANCH  26  27
ATOM     27  O           0     130.350 131.569 135.860  0.00  0.00    -0.399 OA
ATOM     28  H           0     130.008 130.681 135.696  0.00  0.00     0.209 HD
ENDBRANCH  26  27
ENDBRANCH   6  26
TORSDOF 4
ENDMDL
MODEL 8
REMARK VINA RESULT:      -5.8      2.226      3.179
REMARK  4 active torsions:
REMARK  status: ('A' for Active; 'I' for Inactive)
REMARK    1  A    between atoms: C_6  and  C_7 
REMARK    2  A    between atoms: C_7  and  O_8 
REMARK    3  A    between atoms: C_20  and  O_21 
REMARK    4  A    between atoms: C_20  and  O_22 
ROOT
ATOM      1  N           0     135.059 135.541 144.345  0.00  0.00    -0.235 N 
ATOM      2  H           0     134.779 135.941 143.507  0.00  0.00     0.174 HD
ATOM      3  H           0     134.923 136.018 145.179  0.00  0.00     0.174 HD
ATOM      4  C           0     135.615 134.363 144.351  0.00  0.00     0.672 C 
ATOM      5  N           0     135.826 133.641 143.189  0.00  0.00    -0.218 N 
ATOM      6  C           0     136.942 132.700 143.151  0.00  0.00     0.150 C 
ATOM      7  C           0     136.945 131.751 144.332  0.00  0.00     0.180 C 
ATOM      8  N           0     135.921 130.707 144.119  0.00  0.00    -0.216 N 
ATOM      9  C           0     135.315 130.468 145.328  0.00  0.00     0.670 C 
ATOM     10  N           0     134.637 129.390 145.607  0.00  0.00    -0.235 N 
ATOM     11  H           0     134.537 128.693 144.940  0.00  0.00     0.174 HD
ATOM     12  H           0     134.234 129.284 146.483  0.00  0.00     0.174 HD
ATOM     13  C           0     136.543 132.395 145.650  0.00  0.00     0.217 C 
ATOM     14  N           0     135.511 131.505 146.206  0.00  0.00    -0.191 N 
ATOM     15  N           0     136.035 133.760 145.508  0.00  0.00    -0.183 N 
ATOM     16  C           0     136.129 134.353 146.855  0.00  0.00     0.150 C 
ATOM     17  C           0     137.456 133.799 147.426  0.00  0.00     0.093 C 
ATOM     18  C           0     137.727 132.498 146.625  0.00  0.00     0.209 C 
ATOM     19  H           0     135.247 133.759 142.419  0.00  0.00     0.178 HD
ATOM     20  H           0     135.714 130.269 143.279  0.00  0.00     0.178 HD
ATOM     21  H           0     135.051 131.627 147.051  0.00  0.00     0.180 HD
ENDROOT
BRANCH  18  22
ATOM     22  O           0     137.756 131.371 147.502  0.00  0.00    -0.362 OA
ATOM     23  H           0     137.034 130.787 147.231  0.00  0.00     0.213 HD
ENDBRANCH  18  22
BRANCH  18  24
ATOM     24  O           0     138.956 132.603 145.905  0.00  0.00    -0.362 OA
ATOM     25  H           0     138.869 132.043 145.121  0.00  0.00     0.213 HD
ENDBRANCH  18  24
BRANCH   6  26
ATOM     26  C           0     138.253 133.489 143.150  0.00  0.00     0.192 C 
BRANCH  26  27
ATOM     27  O           0     138.184 134.528 142.171  0.00  0.00    -0.399 OA
ATOM     28  H           0     137.251 134.756 142.070  0.00  0.00     0.209 HD
ENDBRANCH  26  27
ENDBRANCH   6  26
TORSDOF 4
ENDMDL
MODEL 9
REMARK VINA RESULT:      -5.8      2.563      4.067
REMARK  4 active torsions:
REMARK  status: ('A' for Active; 'I' for Inactive)
REMARK    1  A    between atoms: C_6  and  C_7 
REMARK    2  A    between atoms: C_7  and  O_8 
REMARK    3  A    between atoms: C_20  and  O_21 
REMARK    4  A    between atoms: C_20  and  O_22 
ROOT
ATOM      1  N           0     135.951 132.914 141.135  0.00  0.00    -0.235 N 
ATOM      2  H           0     136.079 133.645 140.511  0.00  0.00     0.174 HD
ATOM      3  H           0     135.570 132.076 140.829  0.00  0.00     0.174 HD
ATOM      4  C           0     136.294 133.056 142.384  0.00  0.00     0.672 C 
ATOM      5  N           0     136.846 134.229 142.869  0.00  0.00    -0.218 N 
ATOM      6  C           0     136.633 134.566 144.273  0.00  0.00     0.150 C 
ATOM      7  C           0     136.990 133.428 145.208  0.00  0.00     0.180 C 
ATOM      8  N           0     138.460 133.350 145.341  0.00  0.00    -0.216 N 
ATOM      9  C           0     138.805 132.021 145.358  0.00  0.00     0.670 C 
ATOM     10  N           0     139.937 131.564 145.815  0.00  0.00    -0.235 N 
ATOM     11  H           0     140.598 132.177 146.174  0.00  0.00     0.174 HD
ATOM     12  H           0     140.117 130.611 145.799  0.00  0.00     0.174 HD
ATOM     13  C           0     136.596 132.052 144.692  0.00  0.00     0.217 C 
ATOM     14  N           0     137.811 131.233 144.834  0.00  0.00    -0.191 N 
ATOM     15  N           0     136.126 132.054 143.305  0.00  0.00    -0.183 N 
ATOM     16  C           0     135.393 130.786 143.141  0.00  0.00     0.150 C 
ATOM     17  C           0     134.648 130.597 144.483  0.00  0.00     0.093 C 
ATOM     18  C           0     135.450 131.437 145.511  0.00  0.00     0.209 C 
ATOM     19  H           0     137.361 134.812 142.289  0.00  0.00     0.178 HD
ATOM     20  H           0     139.070 134.101 145.404  0.00  0.00     0.178 HD
ATOM     21  H           0     137.894 130.295 144.601  0.00  0.00     0.180 HD
ENDROOT
BRANCH  18  22
ATOM     22  O           0     135.965 130.597 146.546  0.00  0.00    -0.362 OA
ATOM     23  H           0     136.702 130.101 146.162  0.00  0.00     0.213 HD
ENDBRANCH  18  22
BRANCH  18  24
ATOM     24  O           0     134.627 132.465 146.065  0.00  0.00    -0.362 OA
ATOM     25  H           0     133.758 132.071 146.225  0.00  0.00     0.213 HD
ENDBRANCH  18  24
BRANCH   6  26
ATOM     26  C           0     135.160 134.927 144.476  0.00  0.00     0.192 C 
BRANCH  26  27
ATOM     27  O           0     134.871 136.152 143.799  0.00  0.00    -0.399 OA
ATOM     28  H           0     135.717 136.516 143.506  0.00  0.00     0.209 HD
ENDBRANCH  26  27
ENDBRANCH   6  26
TORSDOF 4
ENDMDL
