MODEL 1
REMARK VINA RESULT:      -8.1      0.000      0.000
REMARK  5 active torsions:
REMARK  status: ('A' for Active; 'I' for Inactive)
REMARK    1  A    between atoms: C_6  and  C_7 
REMARK    2  A    between atoms: C_7  and  O_8 
REMARK    3  A    between atoms: O_8  and  C_9 
REMARK       I    between atoms: C_9  and  N_10 
REMARK    4  A    between atoms: C_24  and  O_25 
REMARK    5  A    between atoms: C_24  and  O_26 
ROOT
ATOM      1  N           0     137.606 135.000 142.937  0.00  0.00    -0.235 N 
ATOM      2  H           0     137.747 135.903 142.611  0.00  0.00     0.174 HD
ATOM      3  H           0     138.359 134.398 143.040  0.00  0.00     0.174 HD
ATOM      4  C           0     136.404 134.599 143.243  0.00  0.00     0.672 C 
ATOM      5  N           0     135.298 135.422 143.119  0.00  0.00    -0.218 N 
ATOM      6  C           0     134.001 134.804 142.863  0.00  0.00     0.151 C 
ATOM      7  C           0     133.682 133.689 143.840  0.00  0.00     0.180 C 
ATOM      8  N           0     133.265 134.276 145.131  0.00  0.00    -0.216 N 
ATOM      9  C           0     133.816 133.512 146.130  0.00  0.00     0.670 C 
ATOM     10  N           0     133.389 133.500 147.362  0.00  0.00    -0.235 N 
ATOM     11  H           0     132.636 134.054 147.620  0.00  0.00     0.174 HD
ATOM     12  H           0     133.823 132.936 148.021  0.00  0.00     0.174 HD
ATOM     13  C           0     134.876 132.820 144.202  0.00  0.00     0.217 C 
ATOM     14  N           0     134.871 132.763 145.674  0.00  0.00    -0.191 N 
ATOM     15  N           0     136.153 133.333 143.703  0.00  0.00    -0.183 N 
ATOM     16  C           0     137.077 132.185 143.747  0.00  0.00     0.150 C 
ATOM     17  C           0     136.212 130.978 143.318  0.00  0.00     0.093 C 
ATOM     18  C           0     134.752 131.400 143.623  0.00  0.00     0.209 C 
ATOM     19  H           0     135.384 136.385 143.202  0.00  0.00     0.178 HD
ATOM     20  H           0     132.705 135.059 145.250  0.00  0.00     0.178 HD
ATOM     21  H           0     135.504 132.277 146.225  0.00  0.00     0.180 HD
ENDROOT
BRANCH   6  22
ATOM     22  C           0     133.997 134.232 141.445  0.00  0.00     0.208 C 
BRANCH  22  23
ATOM     23  O           0     133.252 135.118 140.568  0.00  0.00    -0.302 OA
BRANCH  23  24
ATOM     24  C           0     133.249 134.904 139.239  0.00  0.00     0.360 C 
ATOM     25  N           0     134.075 135.608 138.440  0.00  0.00    -0.341 N 
ATOM     26  C           0     134.070 135.375 136.994  0.00  0.00     0.151 C 
ATOM     27  H           0     134.672 136.269 138.823  0.00  0.00     0.164 HD
ATOM     28  O           0     132.500 134.076 138.759  0.00  0.00    -0.239 OA
ENDBRANCH  23  24
ENDBRANCH  22  23
ENDBRANCH   6  22
BRANCH  18  29
ATOM     29  O           0     134.167 130.516 144.582  0.00  0.00    -0.362 OA
ATOM     30  H           0     133.389 130.124 144.163  0.00  0.00     0.213 HD
ENDBRANCH  18  29
BRANCH  18  31
ATOM     31  O           0     133.977 131.419 142.424  0.00  0.00    -0.362 OA
ATOM     32  H           0     133.405 130.640 142.447  0.00  0.00     0.213 HD
ENDBRANCH  18  31
TORSDOF 5
ENDMDL
MODEL 2
REMARK VINA RESULT:      -7.2      1.956      2.703
REMARK  5 active torsions:
REMARK  status: ('A' for Active; 'I' for Inactive)
REMARK    1  A    between atoms: C_6  and  C_7 
REMARK    2  A    between atoms: C_7  and  O_8 
REMARK    3  A    between atoms: O_8  and  C_9 
REMARK       I    between atoms: C_9  and  N_10 
REMARK    4  A    between atoms: C_24  and  O_25 
REMARK    5  A    between atoms: C_24  and  O_26 
ROOT
ATOM      1  N           0     134.024 135.419 144.987  0.00  0.00    -0.235 N 
ATOM      2  H           0     133.168 135.817 144.761  0.00  0.00     0.174 HD
ATOM      3  H           0     134.661 135.913 145.526  0.00  0.00     0.174 HD
ATOM      4  C           0     134.315 134.220 144.569  0.00  0.00     0.672 C 
ATOM      5  N           0     133.439 133.473 143.801  0.00  0.00    -0.218 N 
ATOM      6  C           0     133.994 132.489 142.877  0.00  0.00     0.151 C 
ATOM      7  C           0     134.988 131.556 143.544  0.00  0.00     0.180 C 
ATOM      8  N           0     134.252 130.550 144.340  0.00  0.00    -0.216 N 
ATOM      9  C           0     134.951 130.355 145.506  0.00  0.00     0.670 C 
ATOM     10  N           0     134.816 129.309 146.273  0.00  0.00    -0.235 N 
ATOM     11  H           0     134.192 128.607 146.032  0.00  0.00     0.174 HD
ATOM     12  H           0     135.340 129.232 147.086  0.00  0.00     0.174 HD
ATOM     13  C           0     135.892 132.236 144.560  0.00  0.00     0.217 C 
ATOM     14  N           0     135.807 131.395 145.766  0.00  0.00    -0.191 N 
ATOM     15  N           0     135.513 133.618 144.857  0.00  0.00    -0.183 N 
ATOM     16  C           0     136.708 134.227 145.470  0.00  0.00     0.150 C 
ATOM     17  C           0     137.893 133.629 144.676  0.00  0.00     0.093 C 
ATOM     18  C           0     137.350 132.308 144.075  0.00  0.00     0.209 C 
ATOM     19  H           0     132.480 133.600 143.877  0.00  0.00     0.178 HD
ATOM     20  H           0     133.427 130.109 144.084  0.00  0.00     0.178 HD
ATOM     21  H           0     136.277 131.550 146.600  0.00  0.00     0.180 HD
ENDROOT
BRANCH   6  22
ATOM     22  C           0     134.699 133.224 141.737  0.00  0.00     0.208 C 
BRANCH  22  23
ATOM     23  O           0     133.912 134.380 141.348  0.00  0.00    -0.302 OA
BRANCH  23  24
ATOM     24  C           0     133.278 134.395 140.159  0.00  0.00     0.360 C 
ATOM     25  N           0     133.822 135.047 139.113  0.00  0.00    -0.341 N 
ATOM     26  C           0     133.131 135.063 137.821  0.00  0.00     0.151 C 
ATOM     27  H           0     134.670 135.506 139.215  0.00  0.00     0.164 HD
ATOM     28  O           0     132.215 133.820 140.031  0.00  0.00    -0.239 OA
ENDBRANCH  23  24
ENDBRANCH  22  23
ENDBRANCH   6  22
BRANCH  18  29
ATOM     29  O           0     138.098 131.193 144.565  0.00  0.00    -0.362 OA
ATOM     30  H           0     138.817 131.553 145.103  0.00  0.00     0.213 HD
ENDBRANCH  18  29
BRANCH  18  31
ATOM     31  O           0     137.397 132.352 142.648  0.00  0.00    -0.362 OA
ATOM     32  H           0     137.270 133.276 142.392  0.00  0.00     0.213 HD
ENDBRANCH  18  31
TORSDOF 5
ENDMDL
MODEL 3
REMARK VINA RESULT:      -7.0      3.010      5.916
REMARK  5 active torsions:
REMARK  status: ('A' for Active; 'I' for Inactive)
REMARK    1  A    between atoms: C_6  and  C_7 
REMARK    2  A    between atoms: C_7  and  O_8 
REMARK    3  A    between atoms: O_8  and  C_9 
REMARK       I    between atoms: C_9  and  N_10 
REMARK    4  A    between atoms: C_24  and  O_25 
REMARK    5  A    between atoms: C_24  and  O_26 
ROOT
ATOM      1  N           0     137.667 134.426 142.471  0.00  0.00    -0.235 N 
ATOM      2  H           0     138.465 134.070 142.050  0.00  0.00     0.174 HD
ATOM      3  H           0     137.611 135.369 142.687  0.00  0.00     0.174 HD
ATOM      4  C           0     136.667 133.635 142.742  0.00  0.00     0.672 C 
ATOM      5  N           0     136.695 132.283 142.450  0.00  0.00    -0.218 N 
ATOM      6  C           0     135.908 131.378 143.281  0.00  0.00     0.151 C 
ATOM      7  C           0     134.465 131.823 143.426  0.00  0.00     0.180 C 
ATOM      8  N           0     133.728 131.496 142.187  0.00  0.00    -0.216 N 
ATOM      9  C           0     132.879 132.542 141.923  0.00  0.00     0.670 C 
ATOM     10  N           0     131.837 132.459 141.143  0.00  0.00    -0.235 N 
ATOM     11  H           0     131.622 131.620 140.708  0.00  0.00     0.174 HD
ATOM     12  H           0     131.277 133.237 140.997  0.00  0.00     0.174 HD
ATOM     13  C           0     134.291 133.327 143.568  0.00  0.00     0.217 C 
ATOM     14  N           0     133.261 133.684 142.579  0.00  0.00    -0.191 N 
ATOM     15  N           0     135.521 134.088 143.342  0.00  0.00    -0.183 N 
ATOM     16  C           0     135.277 135.411 143.947  0.00  0.00     0.150 C 
ATOM     17  C           0     134.476 135.103 145.233  0.00  0.00     0.093 C 
ATOM     18  C           0     133.821 133.721 144.979  0.00  0.00     0.209 C 
ATOM     19  H           0     137.225 131.945 141.710  0.00  0.00     0.178 HD
ATOM     20  H           0     133.827 130.689 141.658  0.00  0.00     0.178 HD
ATOM     21  H           0     132.911 134.575 142.421  0.00  0.00     0.180 HD
ENDROOT
BRANCH   6  22
ATOM     22  C           0     136.543 131.306 144.671  0.00  0.00     0.208 C 
BRANCH  22  23
ATOM     23  O           0     135.708 130.498 145.543  0.00  0.00    -0.302 OA
BRANCH  23  24
ATOM     24  C           0     136.137 130.176 146.778  0.00  0.00     0.360 C 
ATOM     25  N           0     137.212 129.379 146.932  0.00  0.00    -0.341 N 
ATOM     26  C           0     137.678 129.029 148.275  0.00  0.00     0.151 C 
ATOM     27  H           0     137.677 129.037 146.152  0.00  0.00     0.164 HD
ATOM     28  O           0     135.554 130.604 147.754  0.00  0.00    -0.239 OA
ENDBRANCH  23  24
ENDBRANCH  22  23
ENDBRANCH   6  22
BRANCH  18  29
ATOM     29  O           0     132.397 133.830 145.022  0.00  0.00    -0.362 OA
ATOM     30  H           0     132.045 133.114 144.475  0.00  0.00     0.213 HD
ENDBRANCH  18  29
BRANCH  18  31
ATOM     31  O           0     134.279 132.768 145.939  0.00  0.00    -0.362 OA
ATOM     32  H           0     135.215 132.612 145.755  0.00  0.00     0.213 HD
ENDBRANCH  18  31
TORSDOF 5
ENDMDL
MODEL 4
REMARK VINA RESULT:      -7.0      3.080      6.161
REMARK  5 active torsions:
REMARK  status: ('A' for Active; 'I' for Inactive)
REMARK    1  A    between atoms: C_6  and  C_7 
REMARK    2  A    between atoms: C_7  and  O_8 
REMARK    3  A    between atoms: O_8  and  C_9 
REMARK       I    between atoms: C_9  and  N_10 
REMARK    4  A    between atoms: C_24  and  O_25 
REMARK    5  A    between atoms: C_24  and  O_26 
ROOT
ATOM      1  N           0     134.634 132.108 146.539  0.00  0.00    -0.235 N 
ATOM      2  H           0     134.847 132.192 147.483  0.00  0.00     0.174 HD
ATOM      3  H           0     133.975 131.460 146.247  0.00  0.00     0.174 HD
ATOM      4  C           0     135.230 132.872 145.668  0.00  0.00     0.672 C 
ATOM      5  N           0     136.173 133.815 146.036  0.00  0.00    -0.218 N 
ATOM      6  C           0     137.211 134.169 145.073  0.00  0.00     0.151 C 
ATOM      7  C           0     136.647 134.536 143.713  0.00  0.00     0.180 C 
ATOM      8  N           0     136.088 135.903 143.771  0.00  0.00    -0.216 N 
ATOM      9  C           0     134.927 135.907 143.037  0.00  0.00     0.670 C 
ATOM     10  N           0     134.362 136.983 142.567  0.00  0.00    -0.235 N 
ATOM     11  H           0     134.763 137.851 142.728  0.00  0.00     0.174 HD
ATOM     12  H           0     133.541 136.917 142.056  0.00  0.00     0.174 HD
ATOM     13  C           0     135.470 133.677 143.277  0.00  0.00     0.217 C 
ATOM     14  N           0     134.435 134.638 142.860  0.00  0.00    -0.191 N 
ATOM     15  N           0     134.968 132.788 144.325  0.00  0.00    -0.183 N 
ATOM     16  C           0     134.179 131.762 143.618  0.00  0.00     0.150 C 
ATOM     17  C           0     134.980 131.484 142.325  0.00  0.00     0.093 C 
ATOM     18  C           0     135.834 132.757 142.100  0.00  0.00     0.209 C 
ATOM     19  H           0     136.143 134.232 146.912  0.00  0.00     0.178 HD
ATOM     20  H           0     136.472 136.660 144.242  0.00  0.00     0.178 HD
ATOM     21  H           0     133.556 134.412 142.517  0.00  0.00     0.180 HD
ENDROOT
BRANCH   6  22
ATOM     22  C           0     138.158 132.979 144.908  0.00  0.00     0.208 C 
BRANCH  22  23
ATOM     23  O           0     138.880 132.760 146.148  0.00  0.00    -0.302 OA
BRANCH  23  24
ATOM     24  C           0     139.979 131.982 146.160  0.00  0.00     0.360 C 
ATOM     25  N           0     139.929 130.753 146.711  0.00  0.00    -0.341 N 
ATOM     26  C           0     141.125 129.907 146.723  0.00  0.00     0.151 C 
ATOM     27  H           0     139.101 130.429 147.098  0.00  0.00     0.164 HD
ATOM     28  O           0     141.016 132.388 145.675  0.00  0.00    -0.239 OA
ENDBRANCH  23  24
ENDBRANCH  22  23
ENDBRANCH   6  22
BRANCH  18  29
ATOM     29  O           0     135.492 133.373 140.856  0.00  0.00    -0.362 OA
ATOM     30  H           0     136.301 133.774 140.510  0.00  0.00     0.213 HD
ENDBRANCH  18  29
BRANCH  18  31
ATOM     31  O           0     137.226 132.436 142.131  0.00  0.00    -0.362 OA
ATOM     32  H           0     137.566 132.575 141.237  0.00  0.00     0.213 HD
ENDBRANCH  18  31
TORSDOF 5
ENDMDL
MODEL 5
REMARK VINA RESULT:      -7.0      2.493      3.562
REMARK  5 active torsions:
REMARK  status: ('A' for Active; 'I' for Inactive)
REMARK    1  A    between atoms: C_6  and  C_7 
REMARK    2  A    between atoms: C_7  and  O_8 
REMARK    3  A    between atoms: O_8  and  C_9 
REMARK       I    between atoms: C_9  and  N_10 
REMARK    4  A    between atoms: C_24  and  O_25 
REMARK    5  A    between atoms: C_24  and  O_26 
ROOT
ATOM      1  N           0     134.511 134.748 146.497  0.00  0.00    -0.235 N 
ATOM      2  H           0     133.702 135.214 146.233  0.00  0.00     0.174 HD
ATOM      3  H           0     135.096 135.133 147.167  0.00  0.00     0.174 HD
ATOM      4  C           0     134.808 133.601 145.955  0.00  0.00     0.672 C 
ATOM      5  N           0     134.003 133.007 144.998  0.00  0.00    -0.218 N 
ATOM      6  C           0     134.629 132.127 144.016  0.00  0.00     0.151 C 
ATOM      7  C           0     135.503 131.065 144.657  0.00  0.00     0.180 C 
ATOM      8  N           0     134.644 130.002 145.219  0.00  0.00    -0.216 N 
ATOM      9  C           0     135.192 129.619 146.419  0.00  0.00     0.670 C 
ATOM     10  N           0     134.931 128.490 147.015  0.00  0.00    -0.235 N 
ATOM     11  H           0     134.316 127.858 146.611  0.00  0.00     0.174 HD
ATOM     12  H           0     135.353 128.279 147.864  0.00  0.00     0.174 HD
ATOM     13  C           0     136.304 131.559 145.852  0.00  0.00     0.217 C 
ATOM     14  N           0     136.047 130.571 146.913  0.00  0.00    -0.191 N 
ATOM     15  N           0     135.941 132.907 146.290  0.00  0.00    -0.183 N 
ATOM     16  C           0     137.075 133.368 147.111  0.00  0.00     0.150 C 
ATOM     17  C           0     138.325 132.821 146.382  0.00  0.00     0.093 C 
ATOM     18  C           0     137.811 131.620 145.548  0.00  0.00     0.209 C 
ATOM     19  H           0     133.046 133.172 144.981  0.00  0.00     0.178 HD
ATOM     20  H           0     133.840 129.640 144.814  0.00  0.00     0.178 HD
ATOM     21  H           0     136.420 130.591 147.809  0.00  0.00     0.180 HD
ENDROOT
BRANCH   6  22
ATOM     22  C           0     135.489 132.970 143.074  0.00  0.00     0.208 C 
BRANCH  22  23
ATOM     23  O           0     134.912 132.946 141.742  0.00  0.00    -0.302 OA
BRANCH  23  24
ATOM     24  C           0     134.139 133.968 141.324  0.00  0.00     0.360 C 
ATOM     25  N           0     133.976 134.195 140.006  0.00  0.00    -0.341 N 
ATOM     26  C           0     133.136 135.306 139.553  0.00  0.00     0.151 C 
ATOM     27  H           0     134.415 133.622 139.358  0.00  0.00     0.164 HD
ATOM     28  O           0     133.589 134.685 142.137  0.00  0.00    -0.239 OA
ENDBRANCH  23  24
ENDBRANCH  22  23
ENDBRANCH   6  22
BRANCH  18  29
ATOM     29  O           0     138.457 130.414 145.962  0.00  0.00    -0.362 OA
ATOM     30  H           0     138.331 129.771 145.251  0.00  0.00     0.213 HD
ENDBRANCH  18  29
BRANCH  18  31
ATOM     31  O           0     138.028 131.850 144.155  0.00  0.00    -0.362 OA
ATOM     32  H           0     137.331 132.451 143.858  0.00  0.00     0.213 HD
ENDBRANCH  18  31
TORSDOF 5
ENDMDL
MODEL 6
REMARK VINA RESULT:      -6.8      3.170      6.088
REMARK  5 active torsions:
REMARK  status: ('A' for Active; 'I' for Inactive)
REMARK    1  A    between atoms: C_6  and  C_7 
REMARK    2  A    between atoms: C_7  and  O_8 
REMARK    3  A    between atoms: O_8  and  C_9 
REMARK       I    between atoms: C_9  and  N_10 
REMARK    4  A    between atoms: C_24  and  O_25 
REMARK    5  A    between atoms: C_24  and  O_26 
ROOT
ATOM      1  N           0     135.168 129.901 144.917  0.00  0.00    -0.235 N 
ATOM      2  H           0     135.509 129.299 145.597  0.00  0.00     0.174 HD
ATOM      3  H           0     134.653 129.551 144.174  0.00  0.00     0.174 HD
ATOM      4  C           0     135.397 131.181 145.007  0.00  0.00     0.672 C 
ATOM      5  N           0     136.123 131.729 146.050  0.00  0.00    -0.218 N 
ATOM      6  C           0     136.861 132.964 145.807  0.00  0.00     0.151 C 
ATOM      7  C           0     136.002 134.045 145.179  0.00  0.00     0.180 C 
ATOM      8  N           0     135.137 134.643 146.217  0.00  0.00    -0.216 N 
ATOM      9  C           0     133.905 134.865 145.651  0.00  0.00     0.670 C 
ATOM     10  N           0     133.017 135.690 146.132  0.00  0.00    -0.235 N 
ATOM     11  H           0     133.209 136.194 146.938  0.00  0.00     0.174 HD
ATOM     12  H           0     132.164 135.801 145.683  0.00  0.00     0.174 HD
ATOM     13  C           0     135.021 133.531 144.137  0.00  0.00     0.217 C 
ATOM     14  N           0     133.723 134.112 144.519  0.00  0.00    -0.191 N 
ATOM     15  N           0     134.942 132.071 144.069  0.00  0.00    -0.183 N 
ATOM     16  C           0     134.327 131.774 142.762  0.00  0.00     0.150 C 
ATOM     17  C           0     134.941 132.820 141.803  0.00  0.00     0.093 C 
ATOM     18  C           0     135.399 133.985 142.717  0.00  0.00     0.209 C 
ATOM     19  H           0     136.138 131.303 146.922  0.00  0.00     0.178 HD
ATOM     20  H           0     135.393 134.843 147.131  0.00  0.00     0.178 HD
ATOM     21  H           0     132.884 133.985 144.050  0.00  0.00     0.180 HD
ENDROOT
BRANCH   6  22
ATOM     22  C           0     138.034 132.662 144.872  0.00  0.00     0.208 C 
BRANCH  22  23
ATOM     23  O           0     138.950 131.745 145.526  0.00  0.00    -0.302 OA
BRANCH  23  24
ATOM     24  C           0     140.019 132.221 146.193  0.00  0.00     0.360 C 
ATOM     25  N           0     139.861 132.777 147.410  0.00  0.00    -0.341 N 
ATOM     26  C           0     141.024 133.295 148.134  0.00  0.00     0.151 C 
ATOM     27  H           0     138.978 132.834 147.807  0.00  0.00     0.164 HD
ATOM     28  O           0     141.125 132.150 145.695  0.00  0.00    -0.239 OA
ENDBRANCH  23  24
ENDBRANCH  22  23
ENDBRANCH   6  22
BRANCH  18  29
ATOM     29  O           0     134.708 135.188 142.373  0.00  0.00    -0.362 OA
ATOM     30  H           0     133.823 135.121 142.755  0.00  0.00     0.213 HD
ENDBRANCH  18  29
BRANCH  18  31
ATOM     31  O           0     136.811 134.174 142.615  0.00  0.00    -0.362 OA
ATOM     32  H           0     137.218 133.616 143.292  0.00  0.00     0.213 HD
ENDBRANCH  18  31
TORSDOF 5
ENDMDL
MODEL 7
REMARK VINA RESULT:      -6.8      3.330      5.487
REMARK  5 active torsions:
REMARK  status: ('A' for Active; 'I' for Inactive)
REMARK    1  A    between atoms: C_6  and  C_7 
REMARK    2  A    between atoms: C_7  and  O_8 
REMARK    3  A    between atoms: O_8  and  C_9 
REMARK       I    between atoms: C_9  and  N_10 
REMARK    4  A    between atoms: C_24  and  O_25 
REMARK    5  A    between atoms: C_24  and  O_26 
ROOT
ATOM      1  N           0     132.742 132.816 141.913  0.00  0.00    -0.235 N 
ATOM      2  H           0     132.035 133.355 141.522  0.00  0.00     0.174 HD
ATOM      3  H           0     132.801 131.871 141.705  0.00  0.00     0.174 HD
ATOM      4  C           0     133.613 133.365 142.711  0.00  0.00     0.672 C 
ATOM      5  N           0     133.574 134.710 143.034  0.00  0.00    -0.218 N 
ATOM      6  C           0     134.110 135.128 144.325  0.00  0.00     0.151 C 
ATOM      7  C           0     135.510 134.599 144.576  0.00  0.00     0.180 C 
ATOM      8  N           0     136.479 135.397 143.796  0.00  0.00    -0.216 N 
ATOM      9  C           0     137.423 134.532 143.299  0.00  0.00     0.670 C 
ATOM     10  N           0     138.602 134.897 142.881  0.00  0.00    -0.235 N 
ATOM     11  H           0     138.860 135.832 142.911  0.00  0.00     0.174 HD
ATOM     12  H           0     139.223 134.234 142.541  0.00  0.00     0.174 HD
ATOM     13  C           0     135.732 133.176 144.088  0.00  0.00     0.217 C 
ATOM     14  N           0     136.971 133.236 143.295  0.00  0.00    -0.191 N 
ATOM     15  N           0     134.625 132.645 143.291  0.00  0.00    -0.183 N 
ATOM     16  C           0     134.805 131.182 143.302  0.00  0.00     0.150 C 
ATOM     17  C           0     135.289 130.865 144.736  0.00  0.00     0.093 C 
ATOM     18  C           0     135.905 132.189 145.255  0.00  0.00     0.209 C 
ATOM     19  H           0     133.200 135.359 142.416  0.00  0.00     0.178 HD
ATOM     20  H           0     136.453 136.358 143.660  0.00  0.00     0.178 HD
ATOM     21  H           0     137.396 132.488 142.849  0.00  0.00     0.180 HD
ENDROOT
BRANCH   6  22
ATOM     22  C           0     133.186 134.620 145.432  0.00  0.00     0.208 C 
BRANCH  22  23
ATOM     23  O           0     133.716 135.016 146.725  0.00  0.00    -0.302 OA
BRANCH  23  24
ATOM     24  C           0     132.989 135.805 147.538  0.00  0.00     0.360 C 
ATOM     25  N           0     133.552 136.339 148.640  0.00  0.00    -0.341 N 
ATOM     26  C           0     132.760 137.197 149.524  0.00  0.00     0.151 C 
ATOM     27  H           0     134.481 136.155 148.847  0.00  0.00     0.164 HD
ATOM     28  O           0     131.824 136.035 147.279  0.00  0.00    -0.239 OA
ENDBRANCH  23  24
ENDBRANCH  22  23
ENDBRANCH   6  22
BRANCH  18  29
ATOM     29  O           0     137.290 132.008 145.559  0.00  0.00    -0.362 OA
ATOM     30  H           0     137.764 132.749 145.159  0.00  0.00     0.213 HD
ENDBRANCH  18  29
BRANCH  18  31
ATOM     31  O           0     135.198 132.651 146.407  0.00  0.00    -0.362 OA
ATOM     32  H           0     135.111 131.896 147.004  0.00  0.00     0.213 HD
ENDBRANCH  18  31
TORSDOF 5
ENDMDL
MODEL 8
REMARK VINA RESULT:      -6.7      2.910      5.662
REMARK  5 active torsions:
REMARK  status: ('A' for Active; 'I' for Inactive)
REMARK    1  A    between atoms: C_6  and  C_7 
REMARK    2  A    between atoms: C_7  and  O_8 
REMARK    3  A    between atoms: O_8  and  C_9 
REMARK       I    between atoms: C_9  and  N_10 
REMARK    4  A    between atoms: C_24  and  O_25 
REMARK    5  A    between atoms: C_24  and  O_26 
ROOT
ATOM      1  N           0     134.820 130.806 145.307  0.00  0.00    -0.235 N 
ATOM      2  H           0     134.042 130.545 145.828  0.00  0.00     0.174 HD
ATOM      3  H           0     135.589 130.218 145.258  0.00  0.00     0.174 HD
ATOM      4  C           0     134.826 131.943 144.671  0.00  0.00     0.672 C 
ATOM      5  N           0     133.751 132.814 144.707  0.00  0.00    -0.218 N 
ATOM      6  C           0     134.011 134.241 144.544  0.00  0.00     0.151 C 
ATOM      7  C           0     134.855 134.546 143.322  0.00  0.00     0.180 C 
ATOM      8  N           0     134.011 134.454 142.111  0.00  0.00    -0.216 N 
ATOM      9  C           0     134.761 133.857 141.128  0.00  0.00     0.670 C 
ATOM     10  N           0     134.493 133.933 139.855  0.00  0.00    -0.235 N 
ATOM     11  H           0     133.722 134.436 139.551  0.00  0.00     0.174 HD
ATOM     12  H           0     135.064 133.486 139.211  0.00  0.00     0.174 HD
ATOM     13  C           0     135.968 133.540 143.069  0.00  0.00     0.217 C 
ATOM     14  N           0     135.828 133.169 141.651  0.00  0.00    -0.191 N 
ATOM     15  N           0     135.900 132.357 143.928  0.00  0.00    -0.183 N 
ATOM     16  C           0     137.244 131.754 143.865  0.00  0.00     0.150 C 
ATOM     17  C           0     138.208 132.963 143.847  0.00  0.00     0.093 C 
ATOM     18  C           0     137.359 134.146 143.316  0.00  0.00     0.209 C 
ATOM     19  H           0     132.847 132.483 144.835  0.00  0.00     0.178 HD
ATOM     20  H           0     133.095 134.760 142.028  0.00  0.00     0.178 HD
ATOM     21  H           0     136.394 132.547 141.168  0.00  0.00     0.180 HD
ENDROOT
BRANCH   6  22
ATOM     22  C           0     134.739 134.755 145.786  0.00  0.00     0.208 C 
BRANCH  22  23
ATOM     23  O           0     133.940 134.476 146.966  0.00  0.00    -0.302 OA
BRANCH  23  24
ATOM     24  C           0     133.327 135.482 147.618  0.00  0.00     0.360 C 
ATOM     25  N           0     132.163 135.977 147.154  0.00  0.00    -0.341 N 
ATOM     26  C           0     131.497 137.071 147.864  0.00  0.00     0.151 C 
ATOM     27  H           0     131.766 135.608 146.350  0.00  0.00     0.164 HD
ATOM     28  O           0     133.825 135.945 148.626  0.00  0.00    -0.239 OA
ENDBRANCH  23  24
ENDBRANCH  22  23
ENDBRANCH   6  22
BRANCH  18  29
ATOM     29  O           0     137.912 134.649 142.098  0.00  0.00    -0.362 OA
ATOM     30  H           0     138.621 135.259 142.344  0.00  0.00     0.213 HD
ENDBRANCH  18  29
BRANCH  18  31
ATOM     31  O           0     137.282 135.184 144.295  0.00  0.00    -0.362 OA
ATOM     32  H           0     136.604 135.804 143.994  0.00  0.00     0.213 HD
ENDBRANCH  18  31
TORSDOF 5
ENDMDL
MODEL 9
REMARK VINA RESULT:      -6.7      7.764     10.514
REMARK  5 active torsions:
REMARK  status: ('A' for Active; 'I' for Inactive)
REMARK    1  A    between atoms: C_6  and  C_7 
REMARK    2  A    between atoms: C_7  and  O_8 
REMARK    3  A    between atoms: O_8  and  C_9 
REMARK       I    between atoms: C_9  and  N_10 
REMARK    4  A    between atoms: C_24  and  O_25 
REMARK    5  A    between atoms: C_24  and  O_26 
ROOT
ATOM      1  N           0     128.914 134.554 132.169  0.00  0.00    -0.235 N 
ATOM      2  H           0     128.185 134.187 131.644  0.00  0.00     0.174 HD
ATOM      3  H           0     129.094 135.507 132.149  0.00  0.00     0.174 HD
ATOM      4  C           0     129.646 133.768 132.906  0.00  0.00     0.672 C 
ATOM      5  N           0     129.426 132.403 132.972  0.00  0.00    -0.218 N 
ATOM      6  C           0     130.562 131.531 133.259  0.00  0.00     0.151 C 
ATOM      7  C           0     131.338 131.968 134.486  0.00  0.00     0.180 C 
ATOM      8  N           0     130.593 131.572 135.700  0.00  0.00    -0.216 N 
ATOM      9  C           0     130.710 132.595 136.609  0.00  0.00     0.670 C 
ATOM     10  N           0     130.503 132.463 137.889  0.00  0.00    -0.235 N 
ATOM     11  H           0     130.249 131.601 138.254  0.00  0.00     0.174 HD
ATOM     12  H           0     130.602 133.227 138.478  0.00  0.00     0.174 HD
ATOM     13  C           0     131.487 133.475 134.623  0.00  0.00     0.217 C 
ATOM     14  N           0     131.072 133.772 136.004  0.00  0.00    -0.191 N 
ATOM     15  N           0     130.689 134.237 133.661  0.00  0.00    -0.183 N 
ATOM     16  C           0     131.287 135.585 133.641  0.00  0.00     0.150 C 
ATOM     17  C           0     132.808 135.332 133.750  0.00  0.00     0.093 C 
ATOM     18  C           0     132.938 133.933 134.403  0.00  0.00     0.209 C 
ATOM     19  H           0     128.539 132.035 132.832  0.00  0.00     0.178 HD
ATOM     20  H           0     130.110 130.741 135.830  0.00  0.00     0.178 HD
ATOM     21  H           0     131.058 134.650 136.417  0.00  0.00     0.180 HD
ENDROOT
BRANCH   6  22
ATOM     22  C           0     131.503 131.534 132.053  0.00  0.00     0.208 C 
BRANCH  22  23
ATOM     23  O           0     132.523 130.516 132.234  0.00  0.00    -0.302 OA
BRANCH  23  24
ATOM     24  C           0     132.217 129.217 132.054  0.00  0.00     0.360 C 
ATOM     25  N           0     132.282 128.359 133.091  0.00  0.00    -0.341 N 
ATOM     26  C           0     131.950 126.946 132.895  0.00  0.00     0.151 C 
ATOM     27  H           0     132.550 128.677 133.967  0.00  0.00     0.164 HD
ATOM     28  O           0     131.882 128.818 130.956  0.00  0.00    -0.239 OA
ENDBRANCH  23  24
ENDBRANCH  22  23
ENDBRANCH   6  22
BRANCH  18  29
ATOM     29  O           0     133.630 134.028 135.651  0.00  0.00    -0.362 OA
ATOM     30  H           0     133.142 134.661 136.194  0.00  0.00     0.213 HD
ENDBRANCH  18  29
BRANCH  18  31
ATOM     31  O           0     133.615 133.033 133.525  0.00  0.00    -0.362 OA
ATOM     32  H           0     133.263 132.150 133.701  0.00  0.00     0.213 HD
ENDBRANCH  18  31
TORSDOF 5
ENDMDL
