# created with PyMOL 2.3.4
@<TRIPOS>MOLECULE
ligand_out_0001
32 34 1                 
SMALL
USER_CHARGES
@<TRIPOS>ATOM
1	   N	137.606	135.000	142.937	N.3	1	UNK0	-0.235	
2	   N	135.298	135.422	143.119	N.3	1	UNK0	-0.218	
3	   N	133.265	134.276	145.131	N.3	1	UNK0	-0.216	
4	   N	133.389	133.500	147.362	N.3	1	UNK0	-0.235	
5	   N	134.871	132.763	145.674	N.3	1	UNK0	-0.191	
6	   N	136.153	133.333	143.703	N.3	1	UNK0	-0.183	
7	   N	134.075	135.608	138.440	N.pl3	1	UNK0	-0.341	
8	   C	136.404	134.599	143.243	C.3	1	UNK0	0.672	
9	   C	134.001	134.804	142.863	C.3	1	UNK0	0.151	
10	   C	133.682	133.689	143.840	C.3	1	UNK0	0.180	
11	   C	133.816	133.512	146.130	C.3	1	UNK0	0.670	
12	   C	134.876	132.820	144.202	C.3	1	UNK0	0.217	
13	   C	137.077	132.185	143.747	C.3	1	UNK0	0.150	
14	   C	136.212	130.978	143.318	C.3	1	UNK0	0.093	
15	   C	134.752	131.400	143.623	C.3	1	UNK0	0.209	
16	   C	133.997	134.232	141.445	C.2	1	UNK0	0.208	
17	   C	133.249	134.904	139.239	C.2	1	UNK0	0.360	
18	   C	134.070	135.375	136.994	C.3	1	UNK0	0.151	
19	   O	133.252	135.118	140.568	O.2	1	UNK0	-0.302	
20	   O	132.500	134.076	138.759	O.co2	1	UNK0	-0.239	
21	   O	134.167	130.516	144.582	O.2	1	UNK0	-0.362	
22	   O	133.977	131.419	142.424	O.2	1	UNK0	-0.362	
23	   H	137.747	135.903	142.611	 H	1	UNK0	0.174	
24	   H	138.359	134.398	143.040	 H	1	UNK0	0.174	
25	   H	132.636	134.054	147.620	 H	1	UNK0	0.174	
26	   H	133.823	132.936	148.021	 H	1	UNK0	0.174	
27	   H	135.384	136.385	143.202	 H	1	UNK0	0.178	
28	   H	132.705	135.059	145.250	 H	1	UNK0	0.178	
29	   H	135.504	132.277	146.225	 H	1	UNK0	0.180	
30	   H	134.672	136.269	138.823	 H	1	UNK0	0.164	
31	   H	133.389	130.124	144.163	 H	1	UNK0	0.213	
32	   H	133.405	130.640	142.447	 H	1	UNK0	0.213	
@<TRIPOS>BOND
1 1 8 1
2 1 23 1
3 1 24 1
4 2 9 1
5 2 27 1
6 3 11 1
7 3 28 1
8 4 25 1
9 4 26 1
10 5 29 1
11 6 13 1
12 7 18 1
13 7 30 1
14 2 8 1
15 6 8 1
16 9 10 1
17 9 16 1
18 3 10 1
19 10 12 1
20 4 11 1
21 5 11 1
22 5 12 1
23 6 12 1
24 12 15 1
25 13 14 1
26 14 15 1
27 15 21 2
28 15 22 2
29 16 19 2
30 7 17 1
31 17 20 2
32 17 19 2
33 21 31 1
34 22 32 1
@<TRIPOS>SUBSTRUCTURE
1	UNK0	1	GROUP	1 ****	UNK
