# created with PyMOL 2.3.4
@<TRIPOS>MOLECULE
ligand_out_0001
28 30 1                 
SMALL
USER_CHARGES
@<TRIPOS>ATOM
1	   N	135.532	132.676	147.136	N.3	1	UNK0	-0.235	
2	   N	136.788	134.431	146.199	N.3	1	UNK0	-0.218	
3	   N	136.238	136.068	143.648	N.3	1	UNK0	-0.216	
4	   N	134.289	136.720	142.477	N.3	1	UNK0	-0.235	
5	   N	134.690	134.485	143.138	N.3	1	UNK0	-0.191	
6	   N	135.582	132.991	144.817	N.3	1	UNK0	-0.183	
7	   C	135.947	133.337	146.092	C.3	1	UNK0	0.672	
8	   C	137.684	134.726	145.085	C.3	1	UNK0	0.150	
9	   C	136.962	134.784	143.753	C.3	1	UNK0	0.180	
10	   C	135.027	135.813	143.052	C.3	1	UNK0	0.670	
11	   C	135.873	133.735	143.591	C.3	1	UNK0	0.217	
12	   C	134.875	131.775	144.376	C.3	1	UNK0	0.150	
13	   C	135.590	131.368	143.066	C.3	1	UNK0	0.093	
14	   C	136.250	132.672	142.546	C.3	1	UNK0	0.209	
15	   C	138.760	133.640	145.015	C.2	1	UNK0	0.192	
16	   O	135.724	133.018	141.263	O.2	1	UNK0	-0.362	
17	   O	137.669	132.520	142.481	O.2	1	UNK0	-0.362	
18	   O	139.745	134.005	144.046	O.2	1	UNK0	-0.399	
19	   H	135.814	132.945	148.023	 H	1	UNK0	0.174	
20	   H	134.940	131.915	147.024	 H	1	UNK0	0.174	
21	   H	134.587	137.643	142.450	 H	1	UNK0	0.174	
22	   H	133.442	136.472	142.073	 H	1	UNK0	0.174	
23	   H	136.781	134.987	146.994	 H	1	UNK0	0.178	
24	   H	136.559	136.933	143.945	 H	1	UNK0	0.178	
25	   H	133.822	134.106	142.932	 H	1	UNK0	0.180	
26	   H	136.033	132.343	140.643	 H	1	UNK0	0.213	
27	   H	137.841	131.727	141.953	 H	1	UNK0	0.213	
28	   H	140.324	133.240	143.935	 H	1	UNK0	0.209	
@<TRIPOS>BOND
1 1 7 1
2 1 19 1
3 1 20 1
4 2 8 1
5 2 23 1
6 3 10 1
7 3 24 1
8 4 21 1
9 4 22 1
10 5 25 1
11 6 12 1
12 2 7 1
13 6 7 1
14 8 9 1
15 8 15 1
16 3 9 1
17 9 11 1
18 4 10 1
19 5 10 1
20 5 11 1
21 6 11 1
22 11 14 1
23 12 13 1
24 13 14 1
25 14 16 2
26 14 17 2
27 15 18 2
28 16 26 1
29 17 27 1
30 18 28 1
@<TRIPOS>SUBSTRUCTURE
1	UNK0	1	GROUP	1 ****	UNK
