# created with PyMOL 2.3.4
@<TRIPOS>MOLECULE
ligand_out_0001
28 30 1                 
SMALL
USER_CHARGES
@<TRIPOS>ATOM
1	   N	135.953	135.285	146.445	N.3	1	UNK0	-0.235	
2	   N	136.339	135.277	144.124	N.3	1	UNK0	-0.218	
3	   N	134.842	133.748	141.910	N.3	1	UNK0	-0.216	
4	   N	132.625	132.970	141.631	N.3	1	UNK0	-0.235	
5	   N	133.889	132.543	143.584	N.3	1	UNK0	-0.191	
6	   N	135.511	133.368	145.176	N.3	1	UNK0	-0.183	
7	   C	135.932	134.667	145.298	C.3	1	UNK0	0.672	
8	   C	136.881	134.438	143.059	C.3	1	UNK0	0.150	
9	   C	135.979	133.267	142.723	C.3	1	UNK0	0.180	
10	   C	133.719	133.080	142.332	C.3	1	UNK0	0.670	
11	   C	135.318	132.624	143.931	C.3	1	UNK0	0.217	
12	   C	135.215	132.408	146.255	C.3	1	UNK0	0.150	
13	   C	135.805	131.070	145.750	C.3	1	UNK0	0.093	
14	   C	135.870	131.215	144.207	C.3	1	UNK0	0.209	
15	   C	138.243	133.899	143.500	C.2	1	UNK0	0.192	
16	   O	135.055	130.224	143.579	O.2	1	UNK0	-0.362	
17	   O	137.220	131.113	143.753	O.2	1	UNK0	-0.362	
18	   O	138.734	132.982	142.519	O.2	1	UNK0	-0.399	
19	   H	136.262	136.203	146.496	 H	1	UNK0	0.174	
20	   H	135.656	134.828	147.248	 H	1	UNK0	0.174	
21	   H	132.570	133.373	140.751	 H	1	UNK0	0.174	
22	   H	131.867	132.482	141.989	 H	1	UNK0	0.174	
23	   H	136.267	136.238	144.013	 H	1	UNK0	0.178	
24	   H	134.881	134.413	141.206	 H	1	UNK0	0.178	
25	   H	133.189	132.171	144.141	 H	1	UNK0	0.180	
26	   H	134.727	130.611	142.756	 H	1	UNK0	0.213	
27	   H	137.249	131.508	142.870	 H	1	UNK0	0.213	
28	   H	138.684	133.432	141.666	 H	1	UNK0	0.209	
@<TRIPOS>BOND
1 1 7 1
2 1 19 1
3 1 20 1
4 2 8 1
5 2 23 1
6 3 10 1
7 3 24 1
8 4 21 1
9 4 22 1
10 5 25 1
11 6 12 1
12 2 7 1
13 6 7 1
14 8 9 1
15 8 15 1
16 3 9 1
17 9 11 1
18 4 10 1
19 5 10 1
20 5 11 1
21 6 11 1
22 11 14 1
23 12 13 1
24 13 14 1
25 14 16 2
26 14 17 2
27 15 18 2
28 16 26 1
29 17 27 1
30 18 28 1
@<TRIPOS>SUBSTRUCTURE
1	UNK0	1	GROUP	1 ****	UNK
