MODEL 1
REMARK VINA RESULT:      -7.2      0.000      0.000
REMARK  4 active torsions:
REMARK  status: ('A' for Active; 'I' for Inactive)
REMARK    1  A    between atoms: C_6  and  C_7 
REMARK    2  A    between atoms: C_7  and  O_8 
REMARK    3  A    between atoms: C_20  and  O_21 
REMARK    4  A    between atoms: C_20  and  O_22 
ROOT
ATOM      1  N           0     135.953 135.285 146.445  0.00  0.00    -0.235 N 
ATOM      2  H           0     136.262 136.203 146.496  0.00  0.00     0.174 HD
ATOM      3  H           0     135.656 134.828 147.248  0.00  0.00     0.174 HD
ATOM      4  C           0     135.932 134.667 145.298  0.00  0.00     0.672 C 
ATOM      5  N           0     136.339 135.277 144.124  0.00  0.00    -0.218 N 
ATOM      6  C           0     136.881 134.438 143.059  0.00  0.00     0.150 C 
ATOM      7  C           0     135.979 133.267 142.723  0.00  0.00     0.180 C 
ATOM      8  N           0     134.842 133.748 141.910  0.00  0.00    -0.216 N 
ATOM      9  C           0     133.719 133.080 142.332  0.00  0.00     0.670 C 
ATOM     10  N           0     132.625 132.970 141.631  0.00  0.00    -0.235 N 
ATOM     11  H           0     132.570 133.373 140.751  0.00  0.00     0.174 HD
ATOM     12  H           0     131.867 132.482 141.989  0.00  0.00     0.174 HD
ATOM     13  C           0     135.318 132.624 143.931  0.00  0.00     0.217 C 
ATOM     14  N           0     133.889 132.543 143.584  0.00  0.00    -0.191 N 
ATOM     15  N           0     135.511 133.368 145.176  0.00  0.00    -0.183 N 
ATOM     16  C           0     135.215 132.408 146.255  0.00  0.00     0.150 C 
ATOM     17  C           0     135.805 131.070 145.750  0.00  0.00     0.093 C 
ATOM     18  C           0     135.870 131.215 144.207  0.00  0.00     0.209 C 
ATOM     19  H           0     136.267 136.238 144.013  0.00  0.00     0.178 HD
ATOM     20  H           0     134.881 134.413 141.206  0.00  0.00     0.178 HD
ATOM     21  H           0     133.189 132.171 144.141  0.00  0.00     0.180 HD
ENDROOT
BRANCH  18  22
ATOM     22  O           0     135.055 130.224 143.579  0.00  0.00    -0.362 OA
ATOM     23  H           0     134.727 130.611 142.756  0.00  0.00     0.213 HD
ENDBRANCH  18  22
BRANCH  18  24
ATOM     24  O           0     137.220 131.113 143.753  0.00  0.00    -0.362 OA
ATOM     25  H           0     137.249 131.508 142.870  0.00  0.00     0.213 HD
ENDBRANCH  18  24
BRANCH   6  26
ATOM     26  C           0     138.243 133.899 143.500  0.00  0.00     0.192 C 
BRANCH  26  27
ATOM     27  O           0     138.734 132.982 142.519  0.00  0.00    -0.399 OA
ATOM     28  H           0     138.684 133.432 141.666  0.00  0.00     0.209 HD
ENDBRANCH  26  27
ENDBRANCH   6  26
TORSDOF 4
ENDMDL
MODEL 2
REMARK VINA RESULT:      -6.5      1.751      2.707
REMARK  4 active torsions:
REMARK  status: ('A' for Active; 'I' for Inactive)
REMARK    1  A    between atoms: C_6  and  C_7 
REMARK    2  A    between atoms: C_7  and  O_8 
REMARK    3  A    between atoms: C_20  and  O_21 
REMARK    4  A    between atoms: C_20  and  O_22 
ROOT
ATOM      1  N           0     134.778 131.915 146.598  0.00  0.00    -0.235 N 
ATOM      2  H           0     135.020 131.967 147.535  0.00  0.00     0.174 HD
ATOM      3  H           0     134.098 131.287 146.306  0.00  0.00     0.174 HD
ATOM      4  C           0     135.363 132.691 145.730  0.00  0.00     0.672 C 
ATOM      5  N           0     136.334 133.607 146.097  0.00  0.00    -0.218 N 
ATOM      6  C           0     137.351 133.968 145.114  0.00  0.00     0.150 C 
ATOM      7  C           0     136.756 134.383 143.783  0.00  0.00     0.180 C 
ATOM      8  N           0     136.225 135.758 143.896  0.00  0.00    -0.216 N 
ATOM      9  C           0     135.044 135.805 143.197  0.00  0.00     0.670 C 
ATOM     10  N           0     134.487 136.906 142.774  0.00  0.00    -0.235 N 
ATOM     11  H           0     134.909 137.761 142.948  0.00  0.00     0.174 HD
ATOM     12  H           0     133.650 136.868 142.284  0.00  0.00     0.174 HD
ATOM     13  C           0     135.550 133.560 143.357  0.00  0.00     0.217 C 
ATOM     14  N           0     134.522 134.551 143.000  0.00  0.00    -0.191 N 
ATOM     15  N           0     135.061 132.650 144.394  0.00  0.00    -0.183 N 
ATOM     16  C           0     134.232 131.660 143.683  0.00  0.00     0.150 C 
ATOM     17  C           0     134.990 131.404 142.359  0.00  0.00     0.093 C 
ATOM     18  C           0     135.862 132.668 142.144  0.00  0.00     0.209 C 
ATOM     19  H           0     136.338 133.997 146.985  0.00  0.00     0.178 HD
ATOM     20  H           0     136.636 136.494 144.376  0.00  0.00     0.178 HD
ATOM     21  H           0     133.630 134.353 142.675  0.00  0.00     0.180 HD
ENDROOT
BRANCH  18  22
ATOM     22  O           0     135.497 133.325 140.929  0.00  0.00    -0.362 OA
ATOM     23  H           0     134.593 133.650 141.048  0.00  0.00     0.213 HD
ENDBRANCH  18  22
BRANCH  18  24
ATOM     24  O           0     137.248 132.320 142.127  0.00  0.00    -0.362 OA
ATOM     25  H           0     137.394 131.718 142.870  0.00  0.00     0.213 HD
ENDBRANCH  18  24
BRANCH   6  26
ATOM     26  C           0     138.270 132.766 144.888  0.00  0.00     0.192 C 
BRANCH  26  27
ATOM     27  O           0     139.198 133.063 143.843  0.00  0.00    -0.399 OA
ATOM     28  H           0     139.549 133.945 144.023  0.00  0.00     0.209 HD
ENDBRANCH  26  27
ENDBRANCH   6  26
TORSDOF 4
ENDMDL
MODEL 3
REMARK VINA RESULT:      -6.4      1.862      3.538
REMARK  4 active torsions:
REMARK  status: ('A' for Active; 'I' for Inactive)
REMARK    1  A    between atoms: C_6  and  C_7 
REMARK    2  A    between atoms: C_7  and  O_8 
REMARK    3  A    between atoms: C_20  and  O_21 
REMARK    4  A    between atoms: C_20  and  O_22 
ROOT
ATOM      1  N           0     134.720 136.657 142.969  0.00  0.00    -0.235 N 
ATOM      2  H           0     133.908 137.048 142.611  0.00  0.00     0.174 HD
ATOM      3  H           0     135.463 137.227 143.221  0.00  0.00     0.174 HD
ATOM      4  C           0     134.812 135.365 143.114  0.00  0.00     0.672 C 
ATOM      5  N           0     133.778 134.509 142.774  0.00  0.00    -0.218 N 
ATOM      6  C           0     134.112 133.148 142.364  0.00  0.00     0.150 C 
ATOM      7  C           0     135.030 132.451 143.348  0.00  0.00     0.180 C 
ATOM      8  N           0     134.243 132.017 144.522  0.00  0.00    -0.216 N 
ATOM      9  C           0     135.012 132.234 145.639  0.00  0.00     0.670 C 
ATOM     10  N           0     134.810 131.657 146.790  0.00  0.00    -0.235 N 
ATOM     11  H           0     134.080 131.028 146.896  0.00  0.00     0.174 HD
ATOM     12  H           0     135.392 131.855 147.541  0.00  0.00     0.174 HD
ATOM     13  C           0     136.105 133.348 143.940  0.00  0.00     0.217 C 
ATOM     14  N           0     136.018 133.135 145.394  0.00  0.00    -0.191 N 
ATOM     15  N           0     135.940 134.765 143.608  0.00  0.00    -0.183 N 
ATOM     16  C           0     137.256 135.380 143.863  0.00  0.00     0.150 C 
ATOM     17  C           0     138.275 134.319 143.385  0.00  0.00     0.093 C 
ATOM     18  C           0     137.509 132.972 143.439  0.00  0.00     0.209 C 
ATOM     19  H           0     132.856 134.808 142.806  0.00  0.00     0.178 HD
ATOM     20  H           0     133.348 131.646 144.506  0.00  0.00     0.178 HD
ATOM     21  H           0     136.578 133.556 146.064  0.00  0.00     0.180 HD
ENDROOT
BRANCH  18  22
ATOM     22  O           0     138.145 132.074 144.351  0.00  0.00    -0.362 OA
ATOM     23  H           0     138.561 132.618 145.034  0.00  0.00     0.213 HD
ENDBRANCH  18  22
BRANCH  18  24
ATOM     24  O           0     137.432 132.390 142.137  0.00  0.00    -0.362 OA
ATOM     25  H           0     138.066 131.658 142.119  0.00  0.00     0.213 HD
ENDBRANCH  18  24
BRANCH   6  26
ATOM     26  C           0     134.802 133.199 140.999  0.00  0.00     0.192 C 
BRANCH  26  27
ATOM     27  O           0     134.106 134.112 140.146  0.00  0.00    -0.399 OA
ATOM     28  H           0     134.619 134.179 139.330  0.00  0.00     0.209 HD
ENDBRANCH  26  27
ENDBRANCH   6  26
TORSDOF 4
ENDMDL
MODEL 4
REMARK VINA RESULT:      -6.2      8.393     10.627
REMARK  4 active torsions:
REMARK  status: ('A' for Active; 'I' for Inactive)
REMARK    1  A    between atoms: C_6  and  C_7 
REMARK    2  A    between atoms: C_7  and  O_8 
REMARK    3  A    between atoms: C_20  and  O_21 
REMARK    4  A    between atoms: C_20  and  O_22 
ROOT
ATOM      1  N           0     132.277 137.383 132.479  0.00  0.00    -0.235 N 
ATOM      2  H           0     131.522 137.982 132.375  0.00  0.00     0.174 HD
ATOM      3  H           0     133.035 137.448 131.877  0.00  0.00     0.174 HD
ATOM      4  C           0     132.276 136.493 133.432  0.00  0.00     0.672 C 
ATOM      5  N           0     131.222 136.365 134.320  0.00  0.00    -0.218 N 
ATOM      6  C           0     130.970 135.054 134.910  0.00  0.00     0.150 C 
ATOM      7  C           0     132.213 134.441 135.524  0.00  0.00     0.180 C 
ATOM      8  N           0     132.484 135.091 136.824  0.00  0.00    -0.216 N 
ATOM      9  C           0     133.844 135.256 136.929  0.00  0.00     0.670 C 
ATOM     10  N           0     134.472 135.454 138.054  0.00  0.00    -0.235 N 
ATOM     11  H           0     133.977 135.490 138.887  0.00  0.00     0.174 HD
ATOM     12  H           0     135.437 135.562 138.057  0.00  0.00     0.174 HD
ATOM     13  C           0     133.484 134.679 134.724  0.00  0.00     0.217 C 
ATOM     14  N           0     134.458 135.189 135.703  0.00  0.00    -0.191 N 
ATOM     15  N           0     133.317 135.620 133.616  0.00  0.00    -0.183 N 
ATOM     16  C           0     134.466 135.381 132.724  0.00  0.00     0.150 C 
ATOM     17  C           0     134.663 133.847 132.755  0.00  0.00     0.093 C 
ATOM     18  C           0     134.013 133.384 134.085  0.00  0.00     0.209 C 
ATOM     19  H           0     130.665 137.127 134.543  0.00  0.00     0.178 HD
ATOM     20  H           0     131.823 135.353 137.483  0.00  0.00     0.178 HD
ATOM     21  H           0     135.378 135.431 135.516  0.00  0.00     0.180 HD
ENDROOT
BRANCH  18  22
ATOM     22  O           0     134.988 132.768 134.929  0.00  0.00    -0.362 OA
ATOM     23  H           0     135.542 132.216 134.359  0.00  0.00     0.213 HD
ENDBRANCH  18  22
BRANCH  18  24
ATOM     24  O           0     132.936 132.483 133.825  0.00  0.00    -0.362 OA
ATOM     25  H           0     132.392 132.888 133.135  0.00  0.00     0.213 HD
ENDBRANCH  18  24
BRANCH   6  26
ATOM     26  C           0     130.444 134.115 133.822  0.00  0.00     0.192 C 
BRANCH  26  27
ATOM     27  O           0     130.174 132.831 134.389  0.00  0.00    -0.399 OA
ATOM     28  H           0     129.540 132.969 135.105  0.00  0.00     0.209 HD
ENDBRANCH  26  27
ENDBRANCH   6  26
TORSDOF 4
ENDMDL
MODEL 5
REMARK VINA RESULT:      -6.1      9.353     10.975
REMARK  4 active torsions:
REMARK  status: ('A' for Active; 'I' for Inactive)
REMARK    1  A    between atoms: C_6  and  C_7 
REMARK    2  A    between atoms: C_7  and  O_8 
REMARK    3  A    between atoms: C_20  and  O_21 
REMARK    4  A    between atoms: C_20  and  O_22 
ROOT
ATOM      1  N           0     134.488 132.883 132.628  0.00  0.00    -0.235 N 
ATOM      2  H           0     134.531 132.134 132.013  0.00  0.00     0.174 HD
ATOM      3  H           0     135.298 133.355 132.876  0.00  0.00     0.174 HD
ATOM      4  C           0     133.340 133.257 133.119  0.00  0.00     0.672 C 
ATOM      5  N           0     132.156 132.619 132.793  0.00  0.00    -0.218 N 
ATOM      6  C           0     131.071 132.631 133.770  0.00  0.00     0.150 C 
ATOM      7  C           0     130.760 134.023 134.282  0.00  0.00     0.180 C 
ATOM      8  N           0     129.986 134.756 133.258  0.00  0.00    -0.216 N 
ATOM      9  C           0     130.443 136.051 133.241  0.00  0.00     0.670 C 
ATOM     10  N           0     129.777 137.055 132.743  0.00  0.00    -0.235 N 
ATOM     11  H           0     128.901 136.912 132.353  0.00  0.00     0.174 HD
ATOM     12  H           0     130.158 137.947 132.763  0.00  0.00     0.174 HD
ATOM     13  C           0     131.988 134.893 134.503  0.00  0.00     0.217 C 
ATOM     14  N           0     131.687 136.157 133.811  0.00  0.00    -0.191 N 
ATOM     15  N           0     133.228 134.303 133.998  0.00  0.00    -0.183 N 
ATOM     16  C           0     134.313 135.033 134.679  0.00  0.00     0.150 C 
ATOM     17  C           0     133.785 135.253 136.116  0.00  0.00     0.093 C 
ATOM     18  C           0     132.241 135.161 135.996  0.00  0.00     0.209 C 
ATOM     19  H           0     132.050 132.176 131.936  0.00  0.00     0.178 HD
ATOM     20  H           0     129.283 134.389 132.699  0.00  0.00     0.178 HD
ATOM     21  H           0     132.266 136.933 133.769  0.00  0.00     0.180 HD
ENDROOT
BRANCH  18  22
ATOM     22  O           0     131.637 136.393 136.396  0.00  0.00    -0.362 OA
ATOM     23  H           0     130.743 136.398 136.026  0.00  0.00     0.213 HD
ENDBRANCH  18  22
BRANCH  18  24
ATOM     24  O           0     131.743 134.081 136.786  0.00  0.00    -0.362 OA
ATOM     25  H           0     131.055 133.645 136.263  0.00  0.00     0.213 HD
ENDBRANCH  18  24
BRANCH   6  26
ATOM     26  C           0     131.465 131.748 134.956  0.00  0.00     0.192 C 
BRANCH  26  27
ATOM     27  O           0     130.340 131.578 135.820  0.00  0.00    -0.399 OA
ATOM     28  H           0     129.926 132.446 135.914  0.00  0.00     0.209 HD
ENDBRANCH  26  27
ENDBRANCH   6  26
TORSDOF 4
ENDMDL
MODEL 6
REMARK VINA RESULT:      -5.9      2.230      3.565
REMARK  4 active torsions:
REMARK  status: ('A' for Active; 'I' for Inactive)
REMARK    1  A    between atoms: C_6  and  C_7 
REMARK    2  A    between atoms: C_7  and  O_8 
REMARK    3  A    between atoms: C_20  and  O_21 
REMARK    4  A    between atoms: C_20  and  O_22 
ROOT
ATOM      1  N           0     138.943 133.127 142.893  0.00  0.00    -0.235 N 
ATOM      2  H           0     139.286 133.574 142.104  0.00  0.00     0.174 HD
ATOM      3  H           0     139.436 132.389 143.285  0.00  0.00     0.174 HD
ATOM      4  C           0     137.822 133.520 143.428  0.00  0.00     0.672 C 
ATOM      5  N           0     137.085 134.570 142.909  0.00  0.00    -0.218 N 
ATOM      6  C           0     135.639 134.569 143.112  0.00  0.00     0.150 C 
ATOM      7  C           0     135.253 134.362 144.563  0.00  0.00     0.180 C 
ATOM      8  N           0     135.462 135.622 145.306  0.00  0.00    -0.216 N 
ATOM      9  C           0     135.978 135.297 146.536  0.00  0.00     0.670 C 
ATOM     10  N           0     135.952 136.087 147.573  0.00  0.00    -0.235 N 
ATOM     11  H           0     135.549 136.966 147.504  0.00  0.00     0.174 HD
ATOM     12  H           0     136.336 135.795 148.415  0.00  0.00     0.174 HD
ATOM     13  C           0     136.122 133.355 145.300  0.00  0.00     0.217 C 
ATOM     14  N           0     136.527 134.039 146.539  0.00  0.00    -0.191 N 
ATOM     15  N           0     137.292 132.916 144.539  0.00  0.00    -0.183 N 
ATOM     16  C           0     137.732 131.666 145.186  0.00  0.00     0.150 C 
ATOM     17  C           0     136.416 130.946 145.563  0.00  0.00     0.093 C 
ATOM     18  C           0     135.350 132.069 145.640  0.00  0.00     0.209 C 
ATOM     19  H           0     137.519 135.289 142.423  0.00  0.00     0.178 HD
ATOM     20  H           0     135.269 136.516 144.984  0.00  0.00     0.178 HD
ATOM     21  H           0     137.082 133.664 147.240  0.00  0.00     0.180 HD
ENDROOT
BRANCH  18  22
ATOM     22  O           0     134.801 132.146 146.957  0.00  0.00    -0.362 OA
ATOM     23  H           0     133.886 132.445 146.862  0.00  0.00     0.213 HD
ENDBRANCH  18  22
BRANCH  18  24
ATOM     24  O           0     134.316 131.842 144.681  0.00  0.00    -0.362 OA
ATOM     25  H           0     133.484 132.105 145.099  0.00  0.00     0.213 HD
ENDBRANCH  18  24
BRANCH   6  26
ATOM     26  C           0     135.024 133.446 142.274  0.00  0.00     0.192 C 
BRANCH  26  27
ATOM     27  O           0     135.605 133.453 140.967  0.00  0.00    -0.399 OA
ATOM     28  H           0     135.553 132.548 140.634  0.00  0.00     0.209 HD
ENDBRANCH  26  27
ENDBRANCH   6  26
TORSDOF 4
ENDMDL
MODEL 7
REMARK VINA RESULT:      -5.8      2.080      2.387
REMARK  4 active torsions:
REMARK  status: ('A' for Active; 'I' for Inactive)
REMARK    1  A    between atoms: C_6  and  C_7 
REMARK    2  A    between atoms: C_7  and  O_8 
REMARK    3  A    between atoms: C_20  and  O_21 
REMARK    4  A    between atoms: C_20  and  O_22 
ROOT
ATOM      1  N           0     135.987 134.681 147.565  0.00  0.00    -0.235 N 
ATOM      2  H           0     136.407 135.551 147.489  0.00  0.00     0.174 HD
ATOM      3  H           0     135.396 134.490 148.311  0.00  0.00     0.174 HD
ATOM      4  C           0     136.212 133.768 146.662  0.00  0.00     0.672 C 
ATOM      5  N           0     137.042 133.993 145.577  0.00  0.00    -0.218 N 
ATOM      6  C           0     137.737 132.851 144.989  0.00  0.00     0.150 C 
ATOM      7  C           0     136.804 131.700 144.670  0.00  0.00     0.180 C 
ATOM      8  N           0     136.052 132.012 143.437  0.00  0.00    -0.216 N 
ATOM      9  C           0     134.763 131.571 143.614  0.00  0.00     0.670 C 
ATOM     10  N           0     133.926 131.347 142.641  0.00  0.00    -0.235 N 
ATOM     11  H           0     134.200 131.489 141.722  0.00  0.00     0.174 HD
ATOM     12  H           0     133.028 131.035 142.836  0.00  0.00     0.174 HD
ATOM     13  C           0     135.719 131.471 145.711  0.00  0.00     0.217 C 
ATOM     14  N           0     134.466 131.398 144.943  0.00  0.00    -0.191 N 
ATOM     15  N           0     135.647 132.521 146.729  0.00  0.00    -0.183 N 
ATOM     16  C           0     134.896 131.926 147.850  0.00  0.00     0.150 C 
ATOM     17  C           0     135.391 130.462 147.909  0.00  0.00     0.093 C 
ATOM     18  C           0     135.935 130.162 146.488  0.00  0.00     0.209 C 
ATOM     19  H           0     137.158 134.886 145.218  0.00  0.00     0.178 HD
ATOM     20  H           0     136.403 132.448 142.645  0.00  0.00     0.178 HD
ATOM     21  H           0     133.582 131.248 145.311  0.00  0.00     0.180 HD
ENDROOT
BRANCH  18  22
ATOM     22  O           0     135.199 129.094 145.888  0.00  0.00    -0.362 OA
ATOM     23  H           0     134.561 129.499 145.284  0.00  0.00     0.213 HD
ENDBRANCH  18  22
BRANCH  18  24
ATOM     24  O           0     137.325 129.841 146.544  0.00  0.00    -0.362 OA
ATOM     25  H           0     137.617 130.019 147.450  0.00  0.00     0.213 HD
ENDBRANCH  18  24
BRANCH   6  26
ATOM     26  C           0     138.803 132.363 145.972  0.00  0.00     0.192 C 
BRANCH  26  27
ATOM     27  O           0     139.420 131.180 145.458  0.00  0.00    -0.399 OA
ATOM     28  H           0     140.308 131.141 145.837  0.00  0.00     0.209 HD
ENDBRANCH  26  27
ENDBRANCH   6  26
TORSDOF 4
ENDMDL
MODEL 8
REMARK VINA RESULT:      -5.8      2.108      2.891
REMARK  4 active torsions:
REMARK  status: ('A' for Active; 'I' for Inactive)
REMARK    1  A    between atoms: C_6  and  C_7 
REMARK    2  A    between atoms: C_7  and  O_8 
REMARK    3  A    between atoms: C_20  and  O_21 
REMARK    4  A    between atoms: C_20  and  O_22 
ROOT
ATOM      1  N           0     135.962 135.586 147.066  0.00  0.00    -0.235 N 
ATOM      2  H           0     135.398 136.343 146.845  0.00  0.00     0.174 HD
ATOM      3  H           0     136.425 135.558 147.918  0.00  0.00     0.174 HD
ATOM      4  C           0     136.094 134.604 146.219  0.00  0.00     0.672 C 
ATOM      5  N           0     135.451 134.595 144.994  0.00  0.00    -0.218 N 
ATOM      6  C           0     136.073 133.869 143.890  0.00  0.00     0.150 C 
ATOM      7  C           0     136.449 132.449 144.264  0.00  0.00     0.180 C 
ATOM      8  N           0     135.233 131.609 144.269  0.00  0.00    -0.216 N 
ATOM      9  C           0     135.326 130.751 145.336  0.00  0.00     0.670 C 
ATOM     10  N           0     134.640 129.648 145.451  0.00  0.00    -0.235 N 
ATOM     11  H           0     134.017 129.389 144.755  0.00  0.00     0.174 HD
ATOM     12  H           0     134.755 129.085 146.233  0.00  0.00     0.174 HD
ATOM     13  C           0     137.001 132.301 145.673  0.00  0.00     0.217 C 
ATOM     14  N           0     136.229 131.198 146.268  0.00  0.00    -0.191 N 
ATOM     15  N           0     136.885 133.515 146.482  0.00  0.00    -0.183 N 
ATOM     16  C           0     137.838 133.335 147.593  0.00  0.00     0.150 C 
ATOM     17  C           0     139.057 132.640 146.944  0.00  0.00     0.093 C 
ATOM     18  C           0     138.498 131.952 145.671  0.00  0.00     0.209 C 
ATOM     19  H           0     134.608 135.059 144.872  0.00  0.00     0.178 HD
ATOM     20  H           0     134.502 131.656 143.634  0.00  0.00     0.178 HD
ATOM     21  H           0     136.343 130.843 147.163  0.00  0.00     0.180 HD
ENDROOT
BRANCH  18  22
ATOM     22  O           0     138.685 130.538 145.746  0.00  0.00    -0.362 OA
ATOM     23  H           0     139.531 130.344 145.318  0.00  0.00     0.213 HD
ENDBRANCH  18  22
BRANCH  18  24
ATOM     24  O           0     139.129 132.478 144.503  0.00  0.00    -0.362 OA
ATOM     25  H           0     138.627 132.153 143.743  0.00  0.00     0.213 HD
ENDBRANCH  18  24
BRANCH   6  26
ATOM     26  C           0     137.337 134.616 143.459  0.00  0.00     0.192 C 
BRANCH  26  27
ATOM     27  O           0     137.825 134.061 142.235  0.00  0.00    -0.399 OA
ATOM     28  H           0     138.785 133.995 142.322  0.00  0.00     0.209 HD
ENDBRANCH  26  27
ENDBRANCH   6  26
TORSDOF 4
ENDMDL
MODEL 9
REMARK VINA RESULT:      -5.6      2.041      2.811
REMARK  4 active torsions:
REMARK  status: ('A' for Active; 'I' for Inactive)
REMARK    1  A    between atoms: C_6  and  C_7 
REMARK    2  A    between atoms: C_7  and  O_8 
REMARK    3  A    between atoms: C_20  and  O_21 
REMARK    4  A    between atoms: C_20  and  O_22 
ROOT
ATOM      1  N           0     136.313 134.628 147.550  0.00  0.00    -0.235 N 
ATOM      2  H           0     135.837 135.229 148.144  0.00  0.00     0.174 HD
ATOM      3  H           0     136.962 134.003 147.909  0.00  0.00     0.174 HD
ATOM      4  C           0     136.077 134.658 146.269  0.00  0.00     0.672 C 
ATOM      5  N           0     135.157 135.527 145.708  0.00  0.00    -0.218 N 
ATOM      6  C           0     135.366 135.962 144.330  0.00  0.00     0.150 C 
ATOM      7  C           0     135.595 134.804 143.381  0.00  0.00     0.180 C 
ATOM      8  N           0     134.302 134.150 143.089  0.00  0.00    -0.216 N 
ATOM      9  C           0     134.521 132.795 143.055  0.00  0.00     0.670 C 
ATOM     10  N           0     133.721 131.938 142.485  0.00  0.00    -0.235 N 
ATOM     11  H           0     132.912 132.246 142.047  0.00  0.00     0.174 HD
ATOM     12  H           0     133.936 130.992 142.497  0.00  0.00     0.174 HD
ATOM     13  C           0     136.448 133.685 143.959  0.00  0.00     0.217 C 
ATOM     14  N           0     135.685 132.453 143.698  0.00  0.00    -0.191 N 
ATOM     15  N           0     136.727 133.834 145.388  0.00  0.00    -0.183 N 
ATOM     16  C           0     137.885 132.959 145.652  0.00  0.00     0.150 C 
ATOM     17  C           0     138.782 133.122 144.402  0.00  0.00     0.093 C 
ATOM     18  C           0     137.825 133.601 143.280  0.00  0.00     0.209 C 
ATOM     19  H           0     134.394 135.839 146.219  0.00  0.00     0.178 HD
ATOM     20  H           0     133.453 134.597 142.948  0.00  0.00     0.178 HD
ATOM     21  H           0     135.959 131.554 143.935  0.00  0.00     0.180 HD
ENDROOT
BRANCH  18  22
ATOM     22  O           0     137.801 132.656 142.208  0.00  0.00    -0.362 OA
ATOM     23  H           0     138.232 131.854 142.534  0.00  0.00     0.213 HD
ENDBRANCH  18  22
BRANCH  18  24
ATOM     24  O           0     138.222 134.888 142.802  0.00  0.00    -0.362 OA
ATOM     25  H           0     138.899 135.216 143.412  0.00  0.00     0.213 HD
ENDBRANCH  18  24
BRANCH   6  26
ATOM     26  C           0     136.584 136.886 144.284  0.00  0.00     0.192 C 
BRANCH  26  27
ATOM     27  O           0     136.165 138.213 143.957  0.00  0.00    -0.399 OA
ATOM     28  H           0     136.673 138.483 143.180  0.00  0.00     0.209 HD
ENDBRANCH  26  27
ENDBRANCH   6  26
TORSDOF 4
ENDMDL
