# created with PyMOL 2.3.4
@<TRIPOS>MOLECULE
ligand_out_0001
32 34 1                 
SMALL
USER_CHARGES
@<TRIPOS>ATOM
1	   N	135.046	136.708	143.216	N.3	1	UNK0	-0.235	
2	   N	133.705	134.799	142.914	N.3	1	UNK0	-0.218	
3	   N	133.807	132.098	144.393	N.3	1	UNK0	-0.215	
4	   N	134.446	131.413	146.566	N.3	1	UNK0	-0.235	
5	   N	135.815	132.782	145.208	N.3	1	UNK0	-0.187	
6	   N	135.928	134.572	143.583	N.3	1	UNK0	-0.183	
7	   N	133.542	136.107	139.749	N.pl3	1	UNK0	-0.346	
8	   C	134.902	135.413	143.240	C.3	1	UNK0	0.672	
9	   C	133.749	133.448	142.360	C.3	1	UNK0	0.151	
10	   C	134.582	132.499	143.199	C.3	1	UNK0	0.180	
11	   C	134.675	132.058	145.456	C.3	1	UNK0	0.672	
12	   C	135.843	133.122	143.775	C.3	1	UNK0	0.219	
13	   C	136.831	133.149	146.197	C.3	1	UNK0	0.171	
14	   C	137.349	134.909	143.779	C.3	1	UNK0	0.150	
15	   C	138.115	133.734	143.127	C.3	1	UNK0	0.093	
16	   C	137.115	132.550	143.127	C.3	1	UNK0	0.210	
17	   C	134.343	133.511	140.952	C.2	1	UNK0	0.208	
18	   C	133.380	134.885	139.203	C.2	1	UNK0	0.358	
19	   O	133.291	133.800	139.995	O.2	1	UNK0	-0.302	
20	   O	133.314	134.764	137.995	O.co2	1	UNK0	-0.239	
21	   O	137.630	131.465	143.901	O.2	1	UNK0	-0.362	
22	   O	136.844	132.126	141.791	O.2	1	UNK0	-0.362	
23	   H	134.300	137.275	142.964	 H	1	UNK0	0.174	
24	   H	135.898	137.106	143.454	 H	1	UNK0	0.174	
25	   H	133.618	130.920	146.677	 H	1	UNK0	0.174	
26	   H	135.103	131.426	147.279	 H	1	UNK0	0.174	
27	   H	132.859	135.254	143.051	 H	1	UNK0	0.178	
28	   H	132.859	131.899	144.419	 H	1	UNK0	0.178	
29	   H	133.594	136.203	140.713	 H	1	UNK0	0.161	
30	   H	133.606	136.889	139.179	 H	1	UNK0	0.161	
31	   H	138.520	131.282	143.568	 H	1	UNK0	0.213	
32	   H	136.381	131.279	141.854	 H	1	UNK0	0.213	
@<TRIPOS>BOND
1 1 8 1
2 1 23 1
3 1 24 1
4 2 9 1
5 2 27 1
6 3 11 1
7 3 28 1
8 4 25 1
9 4 26 1
10 5 13 1
11 6 14 1
12 7 29 1
13 7 30 1
14 2 8 1
15 6 8 1
16 9 10 1
17 9 17 1
18 3 10 1
19 10 12 1
20 4 11 1
21 5 11 1
22 5 12 1
23 6 12 1
24 12 16 1
25 14 15 1
26 15 16 1
27 16 21 2
28 16 22 2
29 17 19 2
30 7 18 1
31 18 20 2
32 18 19 2
33 21 31 1
34 22 32 1
@<TRIPOS>SUBSTRUCTURE
1	UNK0	1	GROUP	1 ****	UNK
