# created with PyMOL 2.3.4
@<TRIPOS>MOLECULE
ligand_out_0001
28 30 1                 
SMALL
USER_CHARGES
@<TRIPOS>ATOM
1	   N	135.929	134.700	146.889	N.3	1	UNK0	-0.235	
2	   N	136.336	135.039	144.596	N.3	1	UNK0	-0.218	
3	   N	134.839	133.882	142.166	N.3	1	UNK0	-0.216	
4	   N	132.616	133.184	141.757	N.3	1	UNK0	-0.235	
5	   N	133.858	132.450	143.631	N.3	1	UNK0	-0.191	
6	   N	135.476	133.003	145.342	N.3	1	UNK0	-0.183	
7	   C	135.911	134.263	145.661	C.3	1	UNK0	0.672	
8	   C	136.876	134.363	143.420	C.3	1	UNK0	0.150	
9	   C	135.963	133.269	142.904	C.3	1	UNK0	0.180	
10	   C	133.705	133.172	142.474	C.3	1	UNK0	0.670	
11	   C	135.284	132.458	143.997	C.3	1	UNK0	0.217	
12	   C	135.160	131.894	146.260	C.3	1	UNK0	0.150	
13	   C	135.738	130.641	145.562	C.3	1	UNK0	0.093	
14	   C	135.817	131.018	144.060	C.3	1	UNK0	0.209	
15	   C	138.228	133.746	143.783	C.2	1	UNK0	0.192	
16	   O	134.996	130.143	143.283	O.2	1	UNK0	-0.362	
17	   O	137.170	130.968	143.605	O.2	1	UNK0	-0.362	
18	   O	138.729	133.005	142.668	O.2	1	UNK0	-0.399	
19	   H	136.249	135.596	147.080	 H	1	UNK0	0.174	
20	   H	135.621	134.130	147.611	 H	1	UNK0	0.174	
21	   H	132.573	133.717	140.948	 H	1	UNK0	0.174	
22	   H	131.848	132.658	142.032	 H	1	UNK0	0.174	
23	   H	136.275	136.006	144.632	 H	1	UNK0	0.178	
24	   H	134.892	134.646	141.571	 H	1	UNK0	0.178	
25	   H	133.149	132.007	144.121	 H	1	UNK0	0.180	
26	   H	135.198	130.322	142.354	 H	1	UNK0	0.213	
27	   H	137.418	131.872	143.363	 H	1	UNK0	0.213	
28	   H	138.364	133.415	141.873	 H	1	UNK0	0.209	
@<TRIPOS>BOND
1 1 7 1
2 1 19 1
3 1 20 1
4 2 8 1
5 2 23 1
6 3 10 1
7 3 24 1
8 4 21 1
9 4 22 1
10 5 25 1
11 6 12 1
12 2 7 1
13 6 7 1
14 8 9 1
15 8 15 1
16 3 9 1
17 9 11 1
18 4 10 1
19 5 10 1
20 5 11 1
21 6 11 1
22 11 14 1
23 12 13 1
24 13 14 1
25 14 16 2
26 14 17 2
27 15 18 2
28 16 26 1
29 17 27 1
30 18 28 1
@<TRIPOS>SUBSTRUCTURE
1	UNK0	1	GROUP	1 ****	UNK
