# created with PyMOL 2.3.4
@<TRIPOS>MOLECULE
ligand_out_0001
32 34 1                 
SMALL
USER_CHARGES
@<TRIPOS>ATOM
1	   N	135.119	136.809	143.205	N.3	1	UNK0	-0.235	
2	   N	133.881	134.816	143.025	N.3	1	UNK0	-0.218	
3	   N	134.149	132.207	144.641	N.3	1	UNK0	-0.216	
4	   N	134.853	131.674	146.836	N.3	1	UNK0	-0.235	
5	   N	136.127	133.040	145.387	N.3	1	UNK0	-0.191	
6	   N	136.120	134.744	143.670	N.3	1	UNK0	-0.183	
7	   N	133.504	136.080	139.853	N.pl3	1	UNK0	-0.346	
8	   C	135.046	135.510	143.299	C.3	1	UNK0	0.672	
9	   C	133.991	133.443	142.542	C.3	1	UNK0	0.151	
10	   C	134.885	132.586	143.416	C.3	1	UNK0	0.180	
11	   C	135.032	132.271	145.691	C.3	1	UNK0	0.670	
12	   C	136.118	133.306	143.938	C.3	1	UNK0	0.217	
13	   C	137.524	135.168	143.826	C.3	1	UNK0	0.150	
14	   C	138.345	134.003	143.222	C.3	1	UNK0	0.093	
15	   C	137.411	132.769	143.301	C.3	1	UNK0	0.209	
16	   C	134.562	133.464	141.123	C.2	1	UNK0	0.208	
17	   C	133.618	134.832	139.358	C.2	1	UNK0	0.358	
18	   O	133.503	133.770	140.178	O.2	1	UNK0	-0.302	
19	   O	133.824	134.664	138.173	O.co2	1	UNK0	-0.239	
20	   O	137.994	131.755	144.122	O.2	1	UNK0	-0.362	
21	   O	137.145	132.261	141.992	O.2	1	UNK0	-0.362	
22	   H	134.341	137.320	142.936	 H	1	UNK0	0.174	
23	   H	135.952	137.263	143.408	 H	1	UNK0	0.174	
24	   H	134.054	131.143	146.986	 H	1	UNK0	0.174	
25	   H	135.518	131.759	147.537	 H	1	UNK0	0.174	
26	   H	133.014	135.231	143.151	 H	1	UNK0	0.178	
27	   H	133.213	131.959	144.694	 H	1	UNK0	0.178	
28	   H	136.794	133.353	146.017	 H	1	UNK0	0.180	
29	   H	133.339	136.214	140.800	 H	1	UNK0	0.161	
30	   H	133.586	136.846	139.262	 H	1	UNK0	0.161	
31	   H	138.946	131.923	144.140	 H	1	UNK0	0.213	
32	   H	136.525	131.526	142.098	 H	1	UNK0	0.213	
@<TRIPOS>BOND
1 1 8 1
2 1 22 1
3 1 23 1
4 2 9 1
5 2 26 1
6 3 11 1
7 3 27 1
8 4 24 1
9 4 25 1
10 5 28 1
11 6 13 1
12 7 29 1
13 7 30 1
14 2 8 1
15 6 8 1
16 9 10 1
17 9 16 1
18 3 10 1
19 10 12 1
20 4 11 1
21 5 11 1
22 5 12 1
23 6 12 1
24 12 15 1
25 13 14 1
26 14 15 1
27 15 20 2
28 15 21 2
29 16 18 2
30 7 17 1
31 17 19 2
32 17 18 2
33 20 31 1
34 21 32 1
@<TRIPOS>SUBSTRUCTURE
1	UNK0	1	GROUP	1 ****	UNK
