MODEL 1
REMARK VINA RESULT:      -7.5      0.000      0.000
REMARK  4 active torsions:
REMARK  status: ('A' for Active; 'I' for Inactive)
REMARK    1  A    between atoms: C_6  and  C_7 
REMARK    2  A    between atoms: C_7  and  O_8 
REMARK    3  A    between atoms: C_20  and  O_21 
REMARK    4  A    between atoms: C_20  and  O_22 
ROOT
ATOM      1  N           0     135.515 132.699 147.121  0.00  0.00    -0.235 N 
ATOM      2  H           0     135.804 132.962 148.009  0.00  0.00     0.174 HD
ATOM      3  H           0     134.916 131.944 147.009  0.00  0.00     0.174 HD
ATOM      4  C           0     135.930 133.361 146.078  0.00  0.00     0.672 C 
ATOM      5  N           0     136.781 134.448 146.185  0.00  0.00    -0.218 N 
ATOM      6  C           0     137.675 134.740 145.069  0.00  0.00     0.150 C 
ATOM      7  C           0     136.948 134.809 143.741  0.00  0.00     0.180 C 
ATOM      8  N           0     136.234 136.100 143.644  0.00  0.00    -0.216 N 
ATOM      9  C           0     135.018 135.858 143.053  0.00  0.00     0.670 C 
ATOM     10  N           0     134.285 136.774 142.485  0.00  0.00    -0.235 N 
ATOM     11  H           0     134.590 137.694 142.461  0.00  0.00     0.174 HD
ATOM     12  H           0     133.434 136.535 142.084  0.00  0.00     0.174 HD
ATOM     13  C           0     135.849 133.771 143.579  0.00  0.00     0.217 C 
ATOM     14  N           0     134.670 134.533 143.135  0.00  0.00    -0.191 N 
ATOM     15  N           0     135.557 133.023 144.803  0.00  0.00    -0.183 N 
ATOM     16  C           0     134.837 131.815 144.361  0.00  0.00     0.150 C 
ATOM     17  C           0     135.543 131.408 143.046  0.00  0.00     0.093 C 
ATOM     18  C           0     136.211 132.708 142.528  0.00  0.00     0.209 C 
ATOM     19  H           0     136.783 135.000 146.983  0.00  0.00     0.178 HD
ATOM     20  H           0     136.563 136.961 143.944  0.00  0.00     0.178 HD
ATOM     21  H           0     133.798 134.162 142.931  0.00  0.00     0.180 HD
ENDROOT
BRANCH  18  22
ATOM     22  O           0     135.683 133.065 141.249  0.00  0.00    -0.362 OA
ATOM     23  H           0     134.860 133.547 141.411  0.00  0.00     0.213 HD
ENDBRANCH  18  22
BRANCH  18  24
ATOM     24  O           0     137.628 132.545 142.455  0.00  0.00    -0.362 OA
ATOM     25  H           0     137.956 133.218 141.842  0.00  0.00     0.213 HD
ENDBRANCH  18  24
BRANCH   6  26
ATOM     26  C           0     138.741 133.645 144.990  0.00  0.00     0.192 C 
BRANCH  26  27
ATOM     27  O           0     139.742 134.020 144.041  0.00  0.00    -0.399 OA
ATOM     28  H           0     139.601 134.955 143.840  0.00  0.00     0.209 HD
ENDBRANCH  26  27
ENDBRANCH   6  26
TORSDOF 4
ENDMDL
MODEL 2
REMARK VINA RESULT:      -7.1      2.375      3.679
REMARK  4 active torsions:
REMARK  status: ('A' for Active; 'I' for Inactive)
REMARK    1  A    between atoms: C_6  and  C_7 
REMARK    2  A    between atoms: C_7  and  O_8 
REMARK    3  A    between atoms: C_20  and  O_21 
REMARK    4  A    between atoms: C_20  and  O_22 
ROOT
ATOM      1  N           0     138.752 130.513 146.067  0.00  0.00    -0.235 N 
ATOM      2  H           0     138.360 129.826 146.628  0.00  0.00     0.174 HD
ATOM      3  H           0     139.699 130.485 145.857  0.00  0.00     0.174 HD
ATOM      4  C           0     138.007 131.470 145.592  0.00  0.00     0.672 C 
ATOM      5  N           0     136.651 131.550 145.858  0.00  0.00    -0.218 N 
ATOM      6  C           0     136.022 132.868 145.861  0.00  0.00     0.150 C 
ATOM      7  C           0     136.330 133.665 144.609  0.00  0.00     0.180 C 
ATOM      8  N           0     135.502 133.157 143.495  0.00  0.00    -0.216 N 
ATOM      9  C           0     136.284 133.154 142.365  0.00  0.00     0.670 C 
ATOM     10  N           0     135.814 133.120 141.150  0.00  0.00    -0.235 N 
ATOM     11  H           0     134.856 133.095 141.000  0.00  0.00     0.174 HD
ATOM     12  H           0     136.423 133.122 140.394  0.00  0.00     0.174 HD
ATOM     13  C           0     137.756 133.508 144.106  0.00  0.00     0.217 C 
ATOM     14  N           0     137.621 133.191 142.675  0.00  0.00    -0.191 N 
ATOM     15  N           0     138.516 132.467 144.801  0.00  0.00    -0.183 N 
ATOM     16  C           0     139.932 132.762 144.515  0.00  0.00     0.150 C 
ATOM     17  C           0     140.019 134.306 144.556  0.00  0.00     0.093 C 
ATOM     18  C           0     138.574 134.798 144.282  0.00  0.00     0.209 C 
ATOM     19  H           0     136.132 130.751 146.039  0.00  0.00     0.178 HD
ATOM     20  H           0     134.576 132.876 143.550  0.00  0.00     0.178 HD
ATOM     21  H           0     138.350 133.040 142.055  0.00  0.00     0.180 HD
ENDROOT
BRANCH  18  22
ATOM     22  O           0     138.533 135.586 143.091  0.00  0.00    -0.362 OA
ATOM     23  H           0     139.451 135.749 142.833  0.00  0.00     0.213 HD
ENDBRANCH  18  22
BRANCH  18  24
ATOM     24  O           0     138.084 135.548 145.394  0.00  0.00    -0.362 OA
ATOM     25  H           0     138.757 135.492 146.088  0.00  0.00     0.213 HD
ENDBRANCH  18  24
BRANCH   6  26
ATOM     26  C           0     136.522 133.651 147.077  0.00  0.00     0.192 C 
BRANCH  26  27
ATOM     27  O           0     135.830 134.899 147.159  0.00  0.00    -0.399 OA
ATOM     28  H           0     136.404 135.564 146.757  0.00  0.00     0.209 HD
ENDBRANCH  26  27
ENDBRANCH   6  26
TORSDOF 4
ENDMDL
MODEL 3
REMARK VINA RESULT:      -7.1      1.728      2.308
REMARK  4 active torsions:
REMARK  status: ('A' for Active; 'I' for Inactive)
REMARK    1  A    between atoms: C_6  and  C_7 
REMARK    2  A    between atoms: C_7  and  O_8 
REMARK    3  A    between atoms: C_20  and  O_21 
REMARK    4  A    between atoms: C_20  and  O_22 
ROOT
ATOM      1  N           0     135.948 134.685 146.895  0.00  0.00    -0.235 N 
ATOM      2  H           0     136.270 135.579 147.092  0.00  0.00     0.174 HD
ATOM      3  H           0     135.640 134.111 147.614  0.00  0.00     0.174 HD
ATOM      4  C           0     135.925 134.257 145.665  0.00  0.00     0.672 C 
ATOM      5  N           0     136.349 135.039 144.604  0.00  0.00    -0.218 N 
ATOM      6  C           0     136.884 134.371 143.421  0.00  0.00     0.150 C 
ATOM      7  C           0     135.967 133.283 142.900  0.00  0.00     0.180 C 
ATOM      8  N           0     134.842 133.903 142.169  0.00  0.00    -0.216 N 
ATOM      9  C           0     133.707 133.194 142.476  0.00  0.00     0.670 C 
ATOM     10  N           0     132.616 133.214 141.763  0.00  0.00    -0.235 N 
ATOM     11  H           0     132.572 133.753 140.958  0.00  0.00     0.174 HD
ATOM     12  H           0     131.848 132.688 142.036  0.00  0.00     0.174 HD
ATOM     13  C           0     135.289 132.466 143.989  0.00  0.00     0.217 C 
ATOM     14  N           0     133.862 132.464 143.628  0.00  0.00    -0.191 N 
ATOM     15  N           0     135.486 133.001 145.337  0.00  0.00    -0.183 N 
ATOM     16  C           0     135.170 131.886 146.249  0.00  0.00     0.150 C 
ATOM     17  C           0     135.743 130.636 145.540  0.00  0.00     0.093 C 
ATOM     18  C           0     135.819 131.023 144.040  0.00  0.00     0.209 C 
ATOM     19  H           0     136.291 136.007 144.646  0.00  0.00     0.178 HD
ATOM     20  H           0     134.895 134.671 141.580  0.00  0.00     0.178 HD
ATOM     21  H           0     133.153 132.018 144.117  0.00  0.00     0.180 HD
ENDROOT
BRANCH  18  22
ATOM     22  O           0     134.993 130.156 143.260  0.00  0.00    -0.362 OA
ATOM     23  H           0     135.349 130.167 142.360  0.00  0.00     0.213 HD
ENDBRANCH  18  22
BRANCH  18  24
ATOM     24  O           0     137.170 130.974 143.581  0.00  0.00    -0.362 OA
ATOM     25  H           0     137.725 130.828 144.360  0.00  0.00     0.213 HD
ENDBRANCH  18  24
BRANCH   6  26
ATOM     26  C           0     138.236 133.748 143.776  0.00  0.00     0.192 C 
BRANCH  26  27
ATOM     27  O           0     138.723 132.998 142.661  0.00  0.00    -0.399 OA
ATOM     28  H           0     139.340 132.343 143.013  0.00  0.00     0.209 HD
ENDBRANCH  26  27
ENDBRANCH   6  26
TORSDOF 4
ENDMDL
MODEL 4
REMARK VINA RESULT:      -6.4      2.322      4.795
REMARK  4 active torsions:
REMARK  status: ('A' for Active; 'I' for Inactive)
REMARK    1  A    between atoms: C_6  and  C_7 
REMARK    2  A    between atoms: C_7  and  O_8 
REMARK    3  A    between atoms: C_20  and  O_21 
REMARK    4  A    between atoms: C_20  and  O_22 
ROOT
ATOM      1  N           0     136.028 134.771 147.175  0.00  0.00    -0.235 N 
ATOM      2  H           0     135.139 134.682 147.554  0.00  0.00     0.174 HD
ATOM      3  H           0     136.527 135.594 147.297  0.00  0.00     0.174 HD
ATOM      4  C           0     136.552 133.784 146.505  0.00  0.00     0.672 C 
ATOM      5  N           0     135.882 132.589 146.307  0.00  0.00    -0.218 N 
ATOM      6  C           0     136.188 131.814 145.108  0.00  0.00     0.150 C 
ATOM      7  C           0     137.675 131.585 144.925  0.00  0.00     0.180 C 
ATOM      8  N           0     138.122 130.525 145.852  0.00  0.00    -0.216 N 
ATOM      9  C           0     139.351 130.894 146.342  0.00  0.00     0.670 C 
ATOM     10  N           0     140.200 130.068 146.887  0.00  0.00    -0.235 N 
ATOM     11  H           0     139.980 129.127 146.965  0.00  0.00     0.174 HD
ATOM     12  H           0     141.053 130.395 147.213  0.00  0.00     0.174 HD
ATOM     13  C           0     138.539 132.781 145.293  0.00  0.00     0.217 C 
ATOM     14  N           0     139.574 132.239 146.188  0.00  0.00    -0.191 N 
ATOM     15  N           0     137.800 133.864 145.944  0.00  0.00    -0.183 N 
ATOM     16  C           0     138.659 135.056 145.812  0.00  0.00     0.150 C 
ATOM     17  C           0     139.274 134.930 144.399  0.00  0.00     0.093 C 
ATOM     18  C           0     139.196 133.419 144.058  0.00  0.00     0.209 C 
ATOM     19  H           0     135.226 132.276 146.949  0.00  0.00     0.178 HD
ATOM     20  H           0     137.637 129.716 146.074  0.00  0.00     0.178 HD
ATOM     21  H           0     140.294 132.745 146.596  0.00  0.00     0.180 HD
ENDROOT
BRANCH  18  22
ATOM     22  O           0     140.505 132.886 143.853  0.00  0.00    -0.362 OA
ATOM     23  H           0     140.832 132.607 144.719  0.00  0.00     0.213 HD
ENDBRANCH  18  22
BRANCH  18  24
ATOM     24  O           0     138.385 133.211 142.901  0.00  0.00    -0.362 OA
ATOM     25  H           0     138.469 134.005 142.354  0.00  0.00     0.213 HD
ENDBRANCH  18  24
BRANCH   6  26
ATOM     26  C           0     135.650 132.561 143.886  0.00  0.00     0.192 C 
BRANCH  26  27
ATOM     27  O           0     135.955 131.821 142.702  0.00  0.00    -0.399 OA
ATOM     28  H           0     136.692 132.274 142.272  0.00  0.00     0.209 HD
ENDBRANCH  26  27
ENDBRANCH   6  26
TORSDOF 4
ENDMDL
MODEL 5
REMARK VINA RESULT:      -6.3      2.635      4.379
REMARK  4 active torsions:
REMARK  status: ('A' for Active; 'I' for Inactive)
REMARK    1  A    between atoms: C_6  and  C_7 
REMARK    2  A    between atoms: C_7  and  O_8 
REMARK    3  A    between atoms: C_20  and  O_21 
REMARK    4  A    between atoms: C_20  and  O_22 
ROOT
ATOM      1  N           0     135.423 130.612 143.067  0.00  0.00    -0.235 N 
ATOM      2  H           0     135.252 130.476 142.122  0.00  0.00     0.174 HD
ATOM      3  H           0     135.040 130.008 143.722  0.00  0.00     0.174 HD
ATOM      4  C           0     136.171 131.606 143.456  0.00  0.00     0.672 C 
ATOM      5  N           0     136.745 132.491 142.560  0.00  0.00    -0.218 N 
ATOM      6  C           0     137.013 133.855 143.009  0.00  0.00     0.150 C 
ATOM      7  C           0     137.783 133.899 144.313  0.00  0.00     0.180 C 
ATOM      8  N           0     139.205 133.595 144.049  0.00  0.00    -0.216 N 
ATOM      9  C           0     139.658 132.804 145.075  0.00  0.00     0.670 C 
ATOM     10  N           0     140.917 132.640 145.373  0.00  0.00    -0.235 N 
ATOM     11  H           0     141.601 133.093 144.856  0.00  0.00     0.174 HD
ATOM     12  H           0     141.169 132.065 146.113  0.00  0.00     0.174 HD
ATOM     13  C           0     137.365 132.839 145.320  0.00  0.00     0.217 C 
ATOM     14  N           0     138.622 132.205 145.748  0.00  0.00    -0.191 N 
ATOM     15  N           0     136.436 131.845 144.779  0.00  0.00    -0.183 N 
ATOM     16  C           0     135.815 131.210 145.956  0.00  0.00     0.150 C 
ATOM     17  C           0     135.616 132.372 146.958  0.00  0.00     0.093 C 
ATOM     18  C           0     136.647 133.450 146.535  0.00  0.00     0.209 C 
ATOM     19  H           0     136.964 132.213 141.657  0.00  0.00     0.178 HD
ATOM     20  H           0     139.725 133.900 143.289  0.00  0.00     0.178 HD
ATOM     21  H           0     138.706 131.490 146.398  0.00  0.00     0.180 HD
ENDROOT
BRANCH  18  22
ATOM     22  O           0     137.572 133.697 147.595  0.00  0.00    -0.362 OA
ATOM     23  H           0     138.458 133.652 147.209  0.00  0.00     0.213 HD
ENDBRANCH  18  22
BRANCH  18  24
ATOM     24  O           0     135.980 134.658 146.162  0.00  0.00    -0.362 OA
ATOM     25  H           0     136.657 135.348 146.114  0.00  0.00     0.213 HD
ENDBRANCH  18  24
BRANCH   6  26
ATOM     26  C           0     135.680 134.582 143.200  0.00  0.00     0.192 C 
BRANCH  26  27
ATOM     27  O           0     135.924 135.971 143.434  0.00  0.00    -0.399 OA
ATOM     28  H           0     135.758 136.428 142.600  0.00  0.00     0.209 HD
ENDBRANCH  26  27
ENDBRANCH   6  26
TORSDOF 4
ENDMDL
MODEL 6
REMARK VINA RESULT:      -6.3      2.950      4.216
REMARK  4 active torsions:
REMARK  status: ('A' for Active; 'I' for Inactive)
REMARK    1  A    between atoms: C_6  and  C_7 
REMARK    2  A    between atoms: C_7  and  O_8 
REMARK    3  A    between atoms: C_20  and  O_21 
REMARK    4  A    between atoms: C_20  and  O_22 
ROOT
ATOM      1  N           0     139.083 130.415 146.009  0.00  0.00    -0.235 N 
ATOM      2  H           0     139.238 129.570 146.460  0.00  0.00     0.174 HD
ATOM      3  H           0     139.828 130.903 145.624  0.00  0.00     0.174 HD
ATOM      4  C           0     137.874 130.892 145.916  0.00  0.00     0.672 C 
ATOM      5  N           0     136.778 130.230 146.443  0.00  0.00    -0.218 N 
ATOM      6  C           0     135.629 131.024 146.867  0.00  0.00     0.150 C 
ATOM      7  C           0     135.158 131.989 145.797  0.00  0.00     0.180 C 
ATOM      8  N           0     134.398 131.245 144.771  0.00  0.00    -0.216 N 
ATOM      9  C           0     134.737 131.764 143.546  0.00  0.00     0.670 C 
ATOM     10  N           0     134.022 131.617 142.466  0.00  0.00    -0.235 N 
ATOM     11  H           0     133.193 131.116 142.497  0.00  0.00     0.174 HD
ATOM     12  H           0     134.320 132.012 141.630  0.00  0.00     0.174 HD
ATOM     13  C           0     136.284 132.646 145.013  0.00  0.00     0.217 C 
ATOM     14  N           0     135.922 132.455 143.599  0.00  0.00    -0.191 N 
ATOM     15  N           0     137.606 132.084 145.295  0.00  0.00    -0.183 N 
ATOM     16  C           0     138.568 133.096 144.823  0.00  0.00     0.150 C 
ATOM     17  C           0     137.919 134.448 145.202  0.00  0.00     0.093 C 
ATOM     18  C           0     136.403 134.147 145.325  0.00  0.00     0.209 C 
ATOM     19  H           0     136.775 129.264 146.528  0.00  0.00     0.178 HD
ATOM     20  H           0     133.774 130.521 144.933  0.00  0.00     0.178 HD
ATOM     21  H           0     136.430 132.768 142.835  0.00  0.00     0.180 HD
ENDROOT
BRANCH  18  22
ATOM     22  O           0     135.663 134.918 144.377  0.00  0.00    -0.362 OA
ATOM     23  H           0     134.891 134.391 144.129  0.00  0.00     0.213 HD
ENDBRANCH  18  22
BRANCH  18  24
ATOM     24  O           0     135.948 134.416 146.652  0.00  0.00    -0.362 OA
ATOM     25  H           0     135.891 133.563 147.107  0.00  0.00     0.213 HD
ENDBRANCH  18  24
BRANCH   6  26
ATOM     26  C           0     136.013 131.822 148.115  0.00  0.00     0.192 C 
BRANCH  26  27
ATOM     27  O           0     134.875 132.544 148.590  0.00  0.00    -0.399 OA
ATOM     28  H           0     135.137 133.472 148.650  0.00  0.00     0.209 HD
ENDBRANCH  26  27
ENDBRANCH   6  26
TORSDOF 4
ENDMDL
MODEL 7
REMARK VINA RESULT:      -6.2      8.508     10.792
REMARK  4 active torsions:
REMARK  status: ('A' for Active; 'I' for Inactive)
REMARK    1  A    between atoms: C_6  and  C_7 
REMARK    2  A    between atoms: C_7  and  O_8 
REMARK    3  A    between atoms: C_20  and  O_21 
REMARK    4  A    between atoms: C_20  and  O_22 
ROOT
ATOM      1  N           0     132.256 137.381 132.485  0.00  0.00    -0.235 N 
ATOM      2  H           0     131.500 137.979 132.384  0.00  0.00     0.174 HD
ATOM      3  H           0     133.010 137.445 131.879  0.00  0.00     0.174 HD
ATOM      4  C           0     132.261 136.492 133.439  0.00  0.00     0.672 C 
ATOM      5  N           0     131.211 136.365 134.333  0.00  0.00    -0.218 N 
ATOM      6  C           0     130.963 135.054 134.927  0.00  0.00     0.150 C 
ATOM      7  C           0     132.209 134.443 135.534  0.00  0.00     0.180 C 
ATOM      8  N           0     132.488 135.095 136.831  0.00  0.00    -0.216 N 
ATOM      9  C           0     133.848 135.260 136.929  0.00  0.00     0.670 C 
ATOM     10  N           0     134.482 135.460 138.050  0.00  0.00    -0.235 N 
ATOM     11  H           0     133.992 135.497 138.886  0.00  0.00     0.174 HD
ATOM     12  H           0     135.447 135.568 138.048  0.00  0.00     0.174 HD
ATOM     13  C           0     133.476 134.680 134.727  0.00  0.00     0.217 C 
ATOM     14  N           0     134.455 135.191 135.700  0.00  0.00    -0.191 N 
ATOM     15  N           0     133.302 135.619 133.618  0.00  0.00    -0.183 N 
ATOM     16  C           0     134.447 135.379 132.721  0.00  0.00     0.150 C 
ATOM     17  C           0     134.645 133.845 132.753  0.00  0.00     0.093 C 
ATOM     18  C           0     134.001 133.385 134.087  0.00  0.00     0.209 C 
ATOM     19  H           0     130.656 137.128 134.558  0.00  0.00     0.178 HD
ATOM     20  H           0     131.830 135.357 137.494  0.00  0.00     0.178 HD
ATOM     21  H           0     135.374 135.434 135.508  0.00  0.00     0.180 HD
ENDROOT
BRANCH  18  22
ATOM     22  O           0     134.981 132.770 134.926  0.00  0.00    -0.362 OA
ATOM     23  H           0     135.487 132.163 134.367  0.00  0.00     0.213 HD
ENDBRANCH  18  22
BRANCH  18  24
ATOM     24  O           0     132.923 132.483 133.834  0.00  0.00    -0.362 OA
ATOM     25  H           0     133.306 131.698 133.417  0.00  0.00     0.213 HD
ENDBRANCH  18  24
BRANCH   6  26
ATOM     26  C           0     130.431 134.114 133.843  0.00  0.00     0.192 C 
BRANCH  26  27
ATOM     27  O           0     130.162 132.832 134.414  0.00  0.00    -0.399 OA
ATOM     28  H           0     130.295 132.180 133.713  0.00  0.00     0.209 HD
ENDBRANCH  26  27
ENDBRANCH   6  26
TORSDOF 4
ENDMDL
MODEL 8
REMARK VINA RESULT:      -6.1      2.195      3.463
REMARK  4 active torsions:
REMARK  status: ('A' for Active; 'I' for Inactive)
REMARK    1  A    between atoms: C_6  and  C_7 
REMARK    2  A    between atoms: C_7  and  O_8 
REMARK    3  A    between atoms: C_20  and  O_21 
REMARK    4  A    between atoms: C_20  and  O_22 
ROOT
ATOM      1  N           0     135.408 133.063 147.350  0.00  0.00    -0.235 N 
ATOM      2  H           0     135.341 132.567 148.180  0.00  0.00     0.174 HD
ATOM      3  H           0     134.612 133.440 146.944  0.00  0.00     0.174 HD
ATOM      4  C           0     136.569 133.227 146.782  0.00  0.00     0.672 C 
ATOM      5  N           0     137.735 132.713 147.324  0.00  0.00    -0.218 N 
ATOM      6  C           0     138.829 132.374 146.419  0.00  0.00     0.150 C 
ATOM      7  C           0     139.179 133.507 145.475  0.00  0.00     0.180 C 
ATOM      8  N           0     139.960 134.525 146.206  0.00  0.00    -0.216 N 
ATOM      9  C           0     139.536 135.760 145.779  0.00  0.00     0.670 C 
ATOM     10  N           0     140.221 136.860 145.922  0.00  0.00    -0.235 N 
ATOM     11  H           0     141.090 136.838 146.352  0.00  0.00     0.174 HD
ATOM     12  H           0     139.862 137.700 145.596  0.00  0.00     0.174 HD
ATOM     13  C           0     137.975 134.275 144.952  0.00  0.00     0.217 C 
ATOM     14  N           0     138.300 135.692 145.184  0.00  0.00    -0.191 N 
ATOM     15  N           0     136.715 133.915 145.605  0.00  0.00    -0.183 N 
ATOM     16  C           0     135.656 134.395 144.699  0.00  0.00     0.150 C 
ATOM     17  C           0     136.203 134.107 143.281  0.00  0.00     0.093 C 
ATOM     18  C           0     137.743 134.031 143.452  0.00  0.00     0.209 C 
ATOM     19  H           0     137.821 132.582 148.281  0.00  0.00     0.178 HD
ATOM     20  H           0     140.648 134.354 146.868  0.00  0.00     0.178 HD
ATOM     21  H           0     137.740 136.449 144.953  0.00  0.00     0.180 HD
ENDROOT
BRANCH  18  22
ATOM     22  O           0     138.381 135.044 142.672  0.00  0.00    -0.362 OA
ATOM     23  H           0     138.736 134.608 141.885  0.00  0.00     0.213 HD
ENDBRANCH  18  22
BRANCH  18  24
ATOM     24  O           0     138.222 132.738 143.080  0.00  0.00    -0.362 OA
ATOM     25  H           0     138.549 132.317 143.888  0.00  0.00     0.213 HD
ENDBRANCH  18  24
BRANCH   6  26
ATOM     26  C           0     138.425 131.151 145.592  0.00  0.00     0.192 C 
BRANCH  26  27
ATOM     27  O           0     138.054 130.084 146.469  0.00  0.00    -0.399 OA
ATOM     28  H           0     138.250 129.260 146.004  0.00  0.00     0.209 HD
ENDBRANCH  26  27
ENDBRANCH   6  26
TORSDOF 4
ENDMDL
MODEL 9
REMARK VINA RESULT:      -6.0      9.574     11.231
REMARK  4 active torsions:
REMARK  status: ('A' for Active; 'I' for Inactive)
REMARK    1  A    between atoms: C_6  and  C_7 
REMARK    2  A    between atoms: C_7  and  O_8 
REMARK    3  A    between atoms: C_20  and  O_21 
REMARK    4  A    between atoms: C_20  and  O_22 
ROOT
ATOM      1  N           0     134.475 132.883 132.612  0.00  0.00    -0.235 N 
ATOM      2  H           0     134.514 132.133 131.999  0.00  0.00     0.174 HD
ATOM      3  H           0     135.287 133.357 132.853  0.00  0.00     0.174 HD
ATOM      4  C           0     133.331 133.257 133.111  0.00  0.00     0.672 C 
ATOM      5  N           0     132.144 132.617 132.795  0.00  0.00    -0.218 N 
ATOM      6  C           0     131.067 132.630 133.781  0.00  0.00     0.150 C 
ATOM      7  C           0     130.759 134.023 134.291  0.00  0.00     0.180 C 
ATOM      8  N           0     129.976 134.752 133.272  0.00  0.00    -0.216 N 
ATOM      9  C           0     130.431 136.048 133.248  0.00  0.00     0.670 C 
ATOM     10  N           0     129.760 137.050 132.753  0.00  0.00    -0.235 N 
ATOM     11  H           0     128.881 136.905 132.371  0.00  0.00     0.174 HD
ATOM     12  H           0     130.141 137.943 132.769  0.00  0.00     0.174 HD
ATOM     13  C           0     131.987 134.895 134.502  0.00  0.00     0.217 C 
ATOM     14  N           0     131.679 136.156 133.809  0.00  0.00    -0.191 N 
ATOM     15  N           0     133.224 134.305 133.988  0.00  0.00    -0.183 N 
ATOM     16  C           0     134.313 135.038 134.659  0.00  0.00     0.150 C 
ATOM     17  C           0     133.795 135.260 136.100  0.00  0.00     0.093 C 
ATOM     18  C           0     132.251 135.166 135.992  0.00  0.00     0.209 C 
ATOM     19  H           0     132.033 132.172 131.941  0.00  0.00     0.178 HD
ATOM     20  H           0     129.270 134.384 132.719  0.00  0.00     0.178 HD
ATOM     21  H           0     132.257 136.934 133.760  0.00  0.00     0.180 HD
ENDROOT
BRANCH  18  22
ATOM     22  O           0     131.648 136.398 136.393  0.00  0.00    -0.362 OA
ATOM     23  H           0     132.042 136.638 137.243  0.00  0.00     0.213 HD
ENDBRANCH  18  22
BRANCH  18  24
ATOM     24  O           0     131.760 134.087 136.788  0.00  0.00    -0.362 OA
ATOM     25  H           0     132.501 133.780 137.331  0.00  0.00     0.213 HD
ENDBRANCH  18  24
BRANCH   6  26
ATOM     26  C           0     131.471 131.750 134.965  0.00  0.00     0.192 C 
BRANCH  26  27
ATOM     27  O           0     130.350 131.573 135.834  0.00  0.00    -0.399 OA
ATOM     28  H           0     129.844 130.826 135.489  0.00  0.00     0.209 HD
ENDBRANCH  26  27
ENDBRANCH   6  26
TORSDOF 4
ENDMDL
