# created with PyMOL 2.3.4
@<TRIPOS>MOLECULE
ligand_out_0001
28 30 1                 
SMALL
USER_CHARGES
@<TRIPOS>ATOM
1	   N	135.515	132.699	147.121	N.3	1	UNK0	-0.235	
2	   N	136.781	134.448	146.185	N.3	1	UNK0	-0.218	
3	   N	136.234	136.100	143.644	N.3	1	UNK0	-0.216	
4	   N	134.285	136.774	142.485	N.3	1	UNK0	-0.235	
5	   N	134.670	134.533	143.135	N.3	1	UNK0	-0.191	
6	   N	135.557	133.023	144.803	N.3	1	UNK0	-0.183	
7	   C	135.930	133.361	146.078	C.3	1	UNK0	0.672	
8	   C	137.675	134.740	145.069	C.3	1	UNK0	0.150	
9	   C	136.948	134.809	143.741	C.3	1	UNK0	0.180	
10	   C	135.018	135.858	143.053	C.3	1	UNK0	0.670	
11	   C	135.849	133.771	143.579	C.3	1	UNK0	0.217	
12	   C	134.837	131.815	144.361	C.3	1	UNK0	0.150	
13	   C	135.543	131.408	143.046	C.3	1	UNK0	0.093	
14	   C	136.211	132.708	142.528	C.3	1	UNK0	0.209	
15	   C	138.741	133.645	144.990	C.2	1	UNK0	0.192	
16	   O	135.683	133.065	141.249	O.2	1	UNK0	-0.362	
17	   O	137.628	132.545	142.455	O.2	1	UNK0	-0.362	
18	   O	139.742	134.020	144.041	O.2	1	UNK0	-0.399	
19	   H	135.804	132.962	148.009	 H	1	UNK0	0.174	
20	   H	134.916	131.944	147.009	 H	1	UNK0	0.174	
21	   H	134.590	137.694	142.461	 H	1	UNK0	0.174	
22	   H	133.434	136.535	142.084	 H	1	UNK0	0.174	
23	   H	136.783	135.000	146.983	 H	1	UNK0	0.178	
24	   H	136.563	136.961	143.944	 H	1	UNK0	0.178	
25	   H	133.798	134.162	142.931	 H	1	UNK0	0.180	
26	   H	134.860	133.547	141.411	 H	1	UNK0	0.213	
27	   H	137.956	133.218	141.842	 H	1	UNK0	0.213	
28	   H	139.601	134.955	143.840	 H	1	UNK0	0.209	
@<TRIPOS>BOND
1 1 7 1
2 1 19 1
3 1 20 1
4 2 8 1
5 2 23 1
6 3 10 1
7 3 24 1
8 4 21 1
9 4 22 1
10 5 25 1
11 6 12 1
12 2 7 1
13 6 7 1
14 8 9 1
15 8 15 1
16 3 9 1
17 9 11 1
18 4 10 1
19 5 10 1
20 5 11 1
21 6 11 1
22 11 14 1
23 12 13 1
24 13 14 1
25 14 16 2
26 14 17 2
27 15 18 2
28 16 26 1
29 17 27 1
30 18 28 1
@<TRIPOS>SUBSTRUCTURE
1	UNK0	1	GROUP	1 ****	UNK
