MODEL 1
REMARK VINA RESULT:      -7.9      0.000      0.000
REMARK  5 active torsions:
REMARK  status: ('A' for Active; 'I' for Inactive)
REMARK    1  A    between atoms: C_6  and  C_7 
REMARK    2  A    between atoms: C_7  and  O_8 
REMARK    3  A    between atoms: O_8  and  C_9 
REMARK    4  A    between atoms: C_23  and  O_24 
REMARK    5  A    between atoms: C_23  and  O_25 
ROOT
ATOM      1  N           0     135.577 132.658 147.114  0.00  0.00    -0.235 N 
ATOM      2  H           0     135.870 132.916 148.002  0.00  0.00     0.174 HD
ATOM      3  H           0     134.978 131.903 147.002  0.00  0.00     0.174 HD
ATOM      4  C           0     135.981 133.329 146.073  0.00  0.00     0.672 C 
ATOM      5  N           0     136.829 134.418 146.182  0.00  0.00    -0.218 N 
ATOM      6  C           0     137.713 134.720 145.060  0.00  0.00     0.151 C 
ATOM      7  C           0     136.974 134.797 143.737  0.00  0.00     0.180 C 
ATOM      8  N           0     136.255 136.087 143.656  0.00  0.00    -0.216 N 
ATOM      9  C           0     135.035 135.846 143.074  0.00  0.00     0.670 C 
ATOM     10  N           0     134.294 136.764 142.518  0.00  0.00    -0.235 N 
ATOM     11  H           0     134.597 137.686 142.499  0.00  0.00     0.174 HD
ATOM     12  H           0     133.442 136.526 142.124  0.00  0.00     0.174 HD
ATOM     13  C           0     135.875 133.758 143.578  0.00  0.00     0.217 C 
ATOM     14  N           0     134.691 134.519 143.149  0.00  0.00    -0.191 N 
ATOM     15  N           0     135.597 133.000 144.799  0.00  0.00    -0.183 N 
ATOM     16  C           0     134.878 131.794 144.353  0.00  0.00     0.150 C 
ATOM     17  C           0     135.573 131.399 143.029  0.00  0.00     0.093 C 
ATOM     18  C           0     136.233 132.704 142.515  0.00  0.00     0.209 C 
ATOM     19  H           0     136.835 134.965 146.983  0.00  0.00     0.178 HD
ATOM     20  H           0     136.586 136.948 143.960  0.00  0.00     0.178 HD
ATOM     21  H           0     133.818 134.147 142.950  0.00  0.00     0.180 HD
ENDROOT
BRANCH   6  22
ATOM     22  C           0     138.781 133.630 144.964  0.00  0.00     0.206 C 
BRANCH  22  23
ATOM     23  O           0     139.801 133.861 145.969  0.00  0.00    -0.320 OA
BRANCH  23  24
ATOM     24  C           0     139.723 133.247 147.160  0.00  0.00     0.254 C 
ATOM     25  C           0     140.559 133.733 148.316  0.00  0.00     0.126 C 
ATOM     26  O           0     138.982 132.304 147.305  0.00  0.00    -0.266 OA
ENDBRANCH  23  24
ENDBRANCH  22  23
ENDBRANCH   6  22
BRANCH  18  27
ATOM     27  O           0     135.693 133.068 141.244  0.00  0.00    -0.362 OA
ATOM     28  H           0     134.924 132.502 141.094  0.00  0.00     0.213 HD
ENDBRANCH  18  27
BRANCH  18  29
ATOM     29  O           0     137.650 132.545 142.430  0.00  0.00    -0.362 OA
ATOM     30  H           0     137.888 131.833 143.040  0.00  0.00     0.213 HD
ENDBRANCH  18  29
TORSDOF 5
ENDMDL
MODEL 2
REMARK VINA RESULT:      -7.6      2.136      5.782
REMARK  5 active torsions:
REMARK  status: ('A' for Active; 'I' for Inactive)
REMARK    1  A    between atoms: C_6  and  C_7 
REMARK    2  A    between atoms: C_7  and  O_8 
REMARK    3  A    between atoms: O_8  and  C_9 
REMARK    4  A    between atoms: C_23  and  O_24 
REMARK    5  A    between atoms: C_23  and  O_25 
ROOT
ATOM      1  N           0     135.034 136.772 143.175  0.00  0.00    -0.235 N 
ATOM      2  H           0     134.242 137.254 142.889  0.00  0.00     0.174 HD
ATOM      3  H           0     135.847 137.257 143.386  0.00  0.00     0.174 HD
ATOM      4  C           0     135.004 135.473 143.282  0.00  0.00     0.672 C 
ATOM      5  N           0     133.866 134.737 142.999  0.00  0.00    -0.218 N 
ATOM      6  C           0     134.030 133.364 142.533  0.00  0.00     0.151 C 
ATOM      7  C           0     134.940 132.546 143.430  0.00  0.00     0.180 C 
ATOM      8  N           0     134.199 132.156 144.648  0.00  0.00    -0.216 N 
ATOM      9  C           0     135.063 132.261 145.710  0.00  0.00     0.670 C 
ATOM     10  N           0     134.886 131.670 146.859  0.00  0.00    -0.235 N 
ATOM     11  H           0     134.104 131.114 147.004  0.00  0.00     0.174 HD
ATOM     12  H           0     135.536 131.786 147.569  0.00  0.00     0.174 HD
ATOM     13  C           0     136.140 133.314 143.963  0.00  0.00     0.217 C 
ATOM     14  N           0     136.136 133.064 145.414  0.00  0.00    -0.191 N 
ATOM     15  N           0     136.097 134.748 143.678  0.00  0.00    -0.183 N 
ATOM     16  C           0     137.483 135.221 143.849  0.00  0.00     0.150 C 
ATOM     17  C           0     138.352 134.078 143.271  0.00  0.00     0.093 C 
ATOM     18  C           0     137.460 132.814 143.350  0.00  0.00     0.209 C 
ATOM     19  H           0     132.983 135.124 143.109  0.00  0.00     0.178 HD
ATOM     20  H           0     133.270 131.877 144.690  0.00  0.00     0.178 HD
ATOM     21  H           0     136.782 133.406 146.051  0.00  0.00     0.180 HD
ENDROOT
BRANCH   6  22
ATOM     22  C           0     134.622 133.388 141.123  0.00  0.00     0.206 C 
BRANCH  22  23
ATOM     23  O           0     133.564 133.630 140.158  0.00  0.00    -0.320 OA
BRANCH  23  24
ATOM     24  C           0     133.448 134.833 139.576  0.00  0.00     0.254 C 
ATOM     25  C           0     133.649 134.975 138.089  0.00  0.00     0.126 C 
ATOM     26  O           0     133.184 135.805 140.245  0.00  0.00    -0.266 OA
ENDBRANCH  23  24
ENDBRANCH  22  23
ENDBRANCH   6  22
BRANCH  18  27
ATOM     27  O           0     138.063 131.829 144.190  0.00  0.00    -0.362 OA
ATOM     28  H           0     137.422 131.622 144.883  0.00  0.00     0.213 HD
ENDBRANCH  18  27
BRANCH  18  29
ATOM     29  O           0     137.230 132.284 142.043  0.00  0.00    -0.362 OA
ATOM     30  H           0     137.932 132.629 141.475  0.00  0.00     0.213 HD
ENDBRANCH  18  29
TORSDOF 5
ENDMDL
MODEL 3
REMARK VINA RESULT:      -7.1      1.698      2.070
REMARK  5 active torsions:
REMARK  status: ('A' for Active; 'I' for Inactive)
REMARK    1  A    between atoms: C_6  and  C_7 
REMARK    2  A    between atoms: C_7  and  O_8 
REMARK    3  A    between atoms: O_8  and  C_9 
REMARK    4  A    between atoms: C_23  and  O_24 
REMARK    5  A    between atoms: C_23  and  O_25 
ROOT
ATOM      1  N           0     136.018 134.627 147.004  0.00  0.00    -0.235 N 
ATOM      2  H           0     136.415 135.471 147.271  0.00  0.00     0.174 HD
ATOM      3  H           0     135.559 134.079 147.658  0.00  0.00     0.174 HD
ATOM      4  C           0     136.097 134.234 145.763  0.00  0.00     0.672 C 
ATOM      5  N           0     136.736 134.985 144.792  0.00  0.00    -0.218 N 
ATOM      6  C           0     137.331 134.285 143.658  0.00  0.00     0.151 C 
ATOM      7  C           0     136.364 133.327 142.988  0.00  0.00     0.180 C 
ATOM      8  N           0     135.418 134.097 142.153  0.00  0.00    -0.216 N 
ATOM      9  C           0     134.178 133.524 142.295  0.00  0.00     0.670 C 
ATOM     10  N           0     133.193 133.692 141.457  0.00  0.00    -0.235 N 
ATOM     11  H           0     133.313 134.252 140.673  0.00  0.00     0.174 HD
ATOM     12  H           0     132.342 133.257 141.616  0.00  0.00     0.174 HD
ATOM     13  C           0     135.465 132.574 143.957  0.00  0.00     0.217 C 
ATOM     14  N           0     134.103 132.752 143.428  0.00  0.00    -0.191 N 
ATOM     15  N           0     135.556 133.049 145.338  0.00  0.00    -0.183 N 
ATOM     16  C           0     135.002 131.960 146.162  0.00  0.00     0.150 C 
ATOM     17  C           0     135.507 130.667 145.479  0.00  0.00     0.093 C 
ATOM     18  C           0     135.811 131.076 144.016  0.00  0.00     0.209 C 
ATOM     19  H           0     136.787 135.952 144.863  0.00  0.00     0.178 HD
ATOM     20  H           0     135.634 134.867 141.603  0.00  0.00     0.178 HD
ATOM     21  H           0     133.292 132.385 143.812  0.00  0.00     0.180 HD
ENDROOT
BRANCH   6  22
ATOM     22  C           0     138.546 133.495 144.147  0.00  0.00     0.206 C 
BRANCH  22  23
ATOM     23  O           0     139.172 134.202 145.249  0.00  0.00    -0.320 OA
BRANCH  23  24
ATOM     24  C           0     139.591 133.526 146.330  0.00  0.00     0.254 C 
ATOM     25  C           0     139.049 132.149 146.615  0.00  0.00     0.126 C 
ATOM     26  O           0     140.402 134.022 147.076  0.00  0.00    -0.266 OA
ENDBRANCH  23  24
ENDBRANCH  22  23
ENDBRANCH   6  22
BRANCH  18  27
ATOM     27  O           0     134.993 130.335 143.110  0.00  0.00    -0.362 OA
ATOM     28  H           0     134.084 130.634 143.245  0.00  0.00     0.213 HD
ENDBRANCH  18  27
BRANCH  18  29
ATOM     29  O           0     137.195 130.875 143.720  0.00  0.00    -0.362 OA
ATOM     30  H           0     137.679 131.597 144.144  0.00  0.00     0.213 HD
ENDBRANCH  18  29
TORSDOF 5
ENDMDL
MODEL 4
REMARK VINA RESULT:      -6.9      2.610      3.344
REMARK  5 active torsions:
REMARK  status: ('A' for Active; 'I' for Inactive)
REMARK    1  A    between atoms: C_6  and  C_7 
REMARK    2  A    between atoms: C_7  and  O_8 
REMARK    3  A    between atoms: O_8  and  C_9 
REMARK    4  A    between atoms: C_23  and  O_24 
REMARK    5  A    between atoms: C_23  and  O_25 
ROOT
ATOM      1  N           0     136.079 134.781 147.600  0.00  0.00    -0.235 N 
ATOM      2  H           0     136.491 135.657 147.530  0.00  0.00     0.174 HD
ATOM      3  H           0     135.508 134.574 148.356  0.00  0.00     0.174 HD
ATOM      4  C           0     136.288 133.887 146.675  0.00  0.00     0.672 C 
ATOM      5  N           0     137.089 134.139 145.574  0.00  0.00    -0.218 N 
ATOM      6  C           0     137.776 133.014 144.948  0.00  0.00     0.151 C 
ATOM      7  C           0     136.843 131.861 144.630  0.00  0.00     0.180 C 
ATOM      8  N           0     136.059 132.191 143.421  0.00  0.00    -0.216 N 
ATOM      9  C           0     134.777 131.739 143.622  0.00  0.00     0.670 C 
ATOM     10  N           0     133.917 131.526 142.665  0.00  0.00    -0.235 N 
ATOM     11  H           0     134.169 131.689 141.742  0.00  0.00     0.174 HD
ATOM     12  H           0     133.027 131.205 142.876  0.00  0.00     0.174 HD
ATOM     13  C           0     135.785 131.607 145.692  0.00  0.00     0.217 C 
ATOM     14  N           0     134.514 131.538 144.954  0.00  0.00    -0.191 N 
ATOM     15  N           0     135.732 132.636 146.732  0.00  0.00    -0.183 N 
ATOM     16  C           0     135.013 132.015 147.858  0.00  0.00     0.150 C 
ATOM     17  C           0     135.519 130.553 147.877  0.00  0.00     0.093 C 
ATOM     18  C           0     136.028 130.284 146.439  0.00  0.00     0.209 C 
ATOM     19  H           0     137.190 135.040 145.228  0.00  0.00     0.178 HD
ATOM     20  H           0     136.389 132.645 142.629  0.00  0.00     0.178 HD
ATOM     21  H           0     133.640 131.376 145.341  0.00  0.00     0.180 HD
ENDROOT
BRANCH   6  22
ATOM     22  C           0     138.870 132.514 145.894  0.00  0.00     0.206 C 
BRANCH  22  23
ATOM     23  O           0     139.761 133.611 146.227  0.00  0.00    -0.320 OA
BRANCH  23  24
ATOM     24  C           0     140.023 133.898 147.511  0.00  0.00     0.254 C 
ATOM     25  C           0     139.642 132.923 148.595  0.00  0.00     0.126 C 
ATOM     26  O           0     140.563 134.939 147.799  0.00  0.00    -0.266 OA
ENDBRANCH  23  24
ENDBRANCH  22  23
ENDBRANCH   6  22
BRANCH  18  27
ATOM     27  O           0     135.285 129.223 145.837  0.00  0.00    -0.362 OA
ATOM     28  H           0     134.355 129.484 145.862  0.00  0.00     0.213 HD
ENDBRANCH  18  27
BRANCH  18  29
ATOM     29  O           0     137.423 129.972 146.455  0.00  0.00    -0.362 OA
ATOM     30  H           0     137.839 130.587 147.074  0.00  0.00     0.213 HD
ENDBRANCH  18  29
TORSDOF 5
ENDMDL
MODEL 5
REMARK VINA RESULT:      -6.8      2.023      4.822
REMARK  5 active torsions:
REMARK  status: ('A' for Active; 'I' for Inactive)
REMARK    1  A    between atoms: C_6  and  C_7 
REMARK    2  A    between atoms: C_7  and  O_8 
REMARK    3  A    between atoms: O_8  and  C_9 
REMARK    4  A    between atoms: C_23  and  O_24 
REMARK    5  A    between atoms: C_23  and  O_25 
ROOT
ATOM      1  N           0     135.457 135.452 143.070  0.00  0.00    -0.235 N 
ATOM      2  H           0     134.524 135.706 143.146  0.00  0.00     0.174 HD
ATOM      3  H           0     135.925 135.576 142.230  0.00  0.00     0.174 HD
ATOM      4  C           0     136.082 134.952 144.098  0.00  0.00     0.672 C 
ATOM      5  N           0     135.459 134.763 145.320  0.00  0.00    -0.218 N 
ATOM      6  C           0     135.944 133.692 146.185  0.00  0.00     0.151 C 
ATOM      7  C           0     137.445 133.745 146.397  0.00  0.00     0.180 C 
ATOM      8  N           0     137.761 134.815 147.366  0.00  0.00    -0.216 N 
ATOM      9  C           0     138.902 135.445 146.931  0.00  0.00     0.670 C 
ATOM     10  N           0     139.670 136.175 147.691  0.00  0.00    -0.235 N 
ATOM     11  H           0     139.448 136.301 148.627  0.00  0.00     0.174 HD
ATOM     12  H           0     140.463 136.592 147.320  0.00  0.00     0.174 HD
ATOM     13  C           0     138.234 134.133 145.156  0.00  0.00     0.217 C 
ATOM     14  N           0     139.133 135.210 145.599  0.00  0.00    -0.191 N 
ATOM     15  N           0     137.398 134.574 144.038  0.00  0.00    -0.183 N 
ATOM     16  C           0     138.255 134.466 142.844  0.00  0.00     0.150 C 
ATOM     17  C           0     139.073 133.172 143.075  0.00  0.00     0.093 C 
ATOM     18  C           0     139.059 132.955 144.609  0.00  0.00     0.209 C 
ATOM     19  H           0     134.719 135.329 145.594  0.00  0.00     0.178 HD
ATOM     20  H           0     137.255 135.033 148.165  0.00  0.00     0.178 HD
ATOM     21  H           0     139.781 135.673 145.045  0.00  0.00     0.180 HD
ENDROOT
BRANCH   6  22
ATOM     22  C           0     135.583 132.346 145.554  0.00  0.00     0.206 C 
BRANCH  22  23
ATOM     23  O           0     134.556 132.543 144.547  0.00  0.00    -0.320 OA
BRANCH  23  24
ATOM     24  C           0     134.501 131.734 143.478  0.00  0.00     0.254 C 
ATOM     25  C           0     134.094 132.285 142.136  0.00  0.00     0.126 C 
ATOM     26  O           0     134.777 130.563 143.591  0.00  0.00    -0.266 OA
ENDBRANCH  23  24
ENDBRANCH  22  23
ENDBRANCH   6  22
BRANCH  18  27
ATOM     27  O           0     140.388 132.987 145.129  0.00  0.00    -0.362 OA
ATOM     28  H           0     140.956 132.562 144.472  0.00  0.00     0.213 HD
ENDBRANCH  18  27
BRANCH  18  29
ATOM     29  O           0     138.426 131.714 144.930  0.00  0.00    -0.362 OA
ATOM     30  H           0     137.473 131.867 144.881  0.00  0.00     0.213 HD
ENDBRANCH  18  29
TORSDOF 5
ENDMDL
MODEL 6
REMARK VINA RESULT:      -6.8      3.152      4.553
REMARK  5 active torsions:
REMARK  status: ('A' for Active; 'I' for Inactive)
REMARK    1  A    between atoms: C_6  and  C_7 
REMARK    2  A    between atoms: C_7  and  O_8 
REMARK    3  A    between atoms: O_8  and  C_9 
REMARK    4  A    between atoms: C_23  and  O_24 
REMARK    5  A    between atoms: C_23  and  O_25 
ROOT
ATOM      1  N           0     139.083 130.466 145.901  0.00  0.00    -0.235 N 
ATOM      2  H           0     139.251 129.617 146.337  0.00  0.00     0.174 HD
ATOM      3  H           0     139.819 130.968 145.517  0.00  0.00     0.174 HD
ATOM      4  C           0     137.867 130.930 145.823  0.00  0.00     0.672 C 
ATOM      5  N           0     136.784 130.248 146.350  0.00  0.00    -0.218 N 
ATOM      6  C           0     135.629 131.023 146.794  0.00  0.00     0.151 C 
ATOM      7  C           0     135.138 131.998 145.741  0.00  0.00     0.180 C 
ATOM      8  N           0     134.379 131.258 144.710  0.00  0.00    -0.216 N 
ATOM      9  C           0     134.702 131.798 143.490  0.00  0.00     0.670 C 
ATOM     10  N           0     133.980 131.659 142.413  0.00  0.00    -0.235 N 
ATOM     11  H           0     133.157 131.147 142.444  0.00  0.00     0.174 HD
ATOM     12  H           0     134.266 132.067 141.582  0.00  0.00     0.174 HD
ATOM     13  C           0     136.250 132.677 144.956  0.00  0.00     0.217 C 
ATOM     14  N           0     135.879 132.503 143.543  0.00  0.00    -0.191 N 
ATOM     15  N           0     137.580 132.127 145.220  0.00  0.00    -0.183 N 
ATOM     16  C           0     138.527 133.157 144.757  0.00  0.00     0.150 C 
ATOM     17  C           0     137.865 134.496 145.159  0.00  0.00     0.093 C 
ATOM     18  C           0     136.354 134.176 145.289  0.00  0.00     0.209 C 
ATOM     19  H           0     136.792 129.280 146.420  0.00  0.00     0.178 HD
ATOM     20  H           0     133.763 130.525 144.868  0.00  0.00     0.178 HD
ATOM     21  H           0     136.378 132.832 142.780  0.00  0.00     0.180 HD
ENDROOT
BRANCH   6  22
ATOM     22  C           0     136.014 131.807 148.049  0.00  0.00     0.206 C 
BRANCH  22  23
ATOM     23  O           0     134.824 132.392 148.639  0.00  0.00    -0.320 OA
BRANCH  23  24
ATOM     24  C           0     134.001 131.636 149.382  0.00  0.00     0.254 C 
ATOM     25  C           0     134.563 130.546 150.258  0.00  0.00     0.126 C 
ATOM     26  O           0     132.808 131.828 149.348  0.00  0.00    -0.266 OA
ENDBRANCH  23  24
ENDBRANCH  22  23
ENDBRANCH   6  22
BRANCH  18  27
ATOM     27  O           0     135.599 134.951 144.358  0.00  0.00    -0.362 OA
ATOM     28  H           0     135.367 134.363 143.627  0.00  0.00     0.213 HD
ENDBRANCH  18  27
BRANCH  18  29
ATOM     29  O           0     135.906 134.420 146.624  0.00  0.00    -0.362 OA
ATOM     30  H           0     136.081 133.615 147.129  0.00  0.00     0.213 HD
ENDBRANCH  18  29
TORSDOF 5
ENDMDL
MODEL 7
REMARK VINA RESULT:      -6.6      1.677      5.393
REMARK  5 active torsions:
REMARK  status: ('A' for Active; 'I' for Inactive)
REMARK    1  A    between atoms: C_6  and  C_7 
REMARK    2  A    between atoms: C_7  and  O_8 
REMARK    3  A    between atoms: O_8  and  C_9 
REMARK    4  A    between atoms: C_23  and  O_24 
REMARK    5  A    between atoms: C_23  and  O_25 
ROOT
ATOM      1  N           0     136.306 135.543 143.458  0.00  0.00    -0.235 N 
ATOM      2  H           0     135.537 135.872 142.967  0.00  0.00     0.174 HD
ATOM      3  H           0     137.172 135.963 143.340  0.00  0.00     0.174 HD
ATOM      4  C           0     136.174 134.542 144.282  0.00  0.00     0.672 C 
ATOM      5  N           0     134.958 133.914 144.489  0.00  0.00    -0.218 N 
ATOM      6  C           0     134.964 132.507 144.879  0.00  0.00     0.151 C 
ATOM      7  C           0     135.873 132.231 146.061  0.00  0.00     0.180 C 
ATOM      8  N           0     135.207 132.681 147.302  0.00  0.00    -0.216 N 
ATOM      9  C           0     136.164 133.259 148.099  0.00  0.00     0.670 C 
ATOM     10  N           0     136.035 133.439 149.384  0.00  0.00    -0.235 N 
ATOM     11  H           0     135.224 133.156 149.835  0.00  0.00     0.174 HD
ATOM     12  H           0     136.751 133.854 149.890  0.00  0.00     0.174 HD
ATOM     13  C           0     137.175 133.017 146.040  0.00  0.00     0.217 C 
ATOM     14  N           0     137.273 133.625 147.377  0.00  0.00    -0.191 N 
ATOM     15  N           0     137.231 134.039 144.994  0.00  0.00    -0.183 N 
ATOM     16  C           0     138.662 134.358 144.838  0.00  0.00     0.150 C 
ATOM     17  C           0     139.378 132.995 144.990  0.00  0.00     0.093 C 
ATOM     18  C           0     138.391 132.108 145.789  0.00  0.00     0.209 C 
ATOM     19  H           0     134.124 134.398 144.380  0.00  0.00     0.178 HD
ATOM     20  H           0     134.265 132.585 147.514  0.00  0.00     0.178 HD
ATOM     21  H           0     137.997 134.186 147.695  0.00  0.00     0.180 HD
ENDROOT
BRANCH   6  22
ATOM     22  C           0     135.434 131.668 143.690  0.00  0.00     0.206 C 
BRANCH  22  23
ATOM     23  O           0     134.370 131.584 142.705  0.00  0.00    -0.320 OA
BRANCH  23  24
ATOM     24  C           0     134.193 132.579 141.822  0.00  0.00     0.254 C 
ATOM     25  C           0     132.801 133.012 141.443  0.00  0.00     0.126 C 
ATOM     26  O           0     135.151 133.127 141.329  0.00  0.00    -0.266 OA
ENDBRANCH  23  24
ENDBRANCH  22  23
ENDBRANCH   6  22
BRANCH  18  27
ATOM     27  O           0     138.977 131.699 147.026  0.00  0.00    -0.362 OA
ATOM     28  H           0     138.319 131.156 147.481  0.00  0.00     0.213 HD
ENDBRANCH  18  27
BRANCH  18  29
ATOM     29  O           0     138.007 130.968 145.017  0.00  0.00    -0.362 OA
ATOM     30  H           0     138.031 131.240 144.089  0.00  0.00     0.213 HD
ENDBRANCH  18  29
TORSDOF 5
ENDMDL
MODEL 8
REMARK VINA RESULT:      -6.6      2.964      4.710
REMARK  5 active torsions:
REMARK  status: ('A' for Active; 'I' for Inactive)
REMARK    1  A    between atoms: C_6  and  C_7 
REMARK    2  A    between atoms: C_7  and  O_8 
REMARK    3  A    between atoms: O_8  and  C_9 
REMARK    4  A    between atoms: C_23  and  O_24 
REMARK    5  A    between atoms: C_23  and  O_25 
ROOT
ATOM      1  N           0     138.718 133.455 142.672  0.00  0.00    -0.235 N 
ATOM      2  H           0     139.553 133.796 142.315  0.00  0.00     0.174 HD
ATOM      3  H           0     137.981 133.257 142.073  0.00  0.00     0.174 HD
ATOM      4  C           0     138.589 133.255 143.953  0.00  0.00     0.672 C 
ATOM      5  N           0     139.615 133.515 144.846  0.00  0.00    -0.218 N 
ATOM      6  C           0     139.263 133.877 146.216  0.00  0.00     0.151 C 
ATOM      7  C           0     138.291 132.899 146.848  0.00  0.00     0.180 C 
ATOM      8  N           0     139.021 131.676 147.246  0.00  0.00    -0.216 N 
ATOM      9  C           0     138.215 130.601 146.959  0.00  0.00     0.670 C 
ATOM     10  N           0     138.358 129.418 147.488  0.00  0.00    -0.235 N 
ATOM     11  H           0     139.069 129.255 148.128  0.00  0.00     0.174 HD
ATOM     12  H           0     137.753 128.701 147.243  0.00  0.00     0.174 HD
ATOM     13  C           0     137.217 132.390 145.899  0.00  0.00     0.217 C 
ATOM     14  N           0     137.242 130.926 146.048  0.00  0.00    -0.191 N 
ATOM     15  N           0     137.428 132.779 144.504  0.00  0.00    -0.183 N 
ATOM     16  C           0     136.120 132.605 143.849  0.00  0.00     0.150 C 
ATOM     17  C           0     135.095 133.075 144.907  0.00  0.00     0.093 C 
ATOM     18  C           0     135.824 132.930 146.267  0.00  0.00     0.209 C 
ATOM     19  H           0     140.543 133.458 144.568  0.00  0.00     0.178 HD
ATOM     20  H           0     139.908 131.640 147.638  0.00  0.00     0.178 HD
ATOM     21  H           0     136.667 130.298 145.583  0.00  0.00     0.180 HD
ENDROOT
BRANCH   6  22
ATOM     22  C           0     138.629 135.268 146.212  0.00  0.00     0.206 C 
BRANCH  22  23
ATOM     23  O           0     139.538 136.213 145.589  0.00  0.00    -0.320 OA
BRANCH  23  24
ATOM     24  C           0     139.991 137.268 146.284  0.00  0.00     0.254 C 
ATOM     25  C           0     139.419 137.578 147.643  0.00  0.00     0.126 C 
ATOM     26  O           0     140.858 137.970 145.819  0.00  0.00    -0.266 OA
ENDBRANCH  23  24
ENDBRANCH  22  23
ENDBRANCH   6  22
BRANCH  18  27
ATOM     27  O           0     135.132 132.005 147.107  0.00  0.00    -0.362 OA
ATOM     28  H           0     134.343 132.458 147.432  0.00  0.00     0.213 HD
ENDBRANCH  18  27
BRANCH  18  29
ATOM     29  O           0     135.937 134.201 146.910  0.00  0.00    -0.362 OA
ATOM     30  H           0     135.155 134.302 147.469  0.00  0.00     0.213 HD
ENDBRANCH  18  29
TORSDOF 5
ENDMDL
MODEL 9
REMARK VINA RESULT:      -6.3      3.015      5.330
REMARK  5 active torsions:
REMARK  status: ('A' for Active; 'I' for Inactive)
REMARK    1  A    between atoms: C_6  and  C_7 
REMARK    2  A    between atoms: C_7  and  O_8 
REMARK    3  A    between atoms: O_8  and  C_9 
REMARK    4  A    between atoms: C_23  and  O_24 
REMARK    5  A    between atoms: C_23  and  O_25 
ROOT
ATOM      1  N           0     137.381 129.366 147.009  0.00  0.00    -0.235 N 
ATOM      2  H           0     137.654 128.615 146.459  0.00  0.00     0.174 HD
ATOM      3  H           0     136.876 129.212 147.823  0.00  0.00     0.174 HD
ATOM      4  C           0     137.698 130.580 146.659  0.00  0.00     0.672 C 
ATOM      5  N           0     138.423 130.850 145.511  0.00  0.00    -0.218 N 
ATOM      6  C           0     138.220 132.136 144.852  0.00  0.00     0.151 C 
ATOM      7  C           0     138.346 133.309 145.805  0.00  0.00     0.180 C 
ATOM      8  N           0     139.776 133.558 146.083  0.00  0.00    -0.216 N 
ATOM      9  C           0     139.891 133.872 147.416  0.00  0.00     0.670 C 
ATOM     10  N           0     140.913 134.493 147.936  0.00  0.00    -0.235 N 
ATOM     11  H           0     141.655 134.763 147.373  0.00  0.00     0.174 HD
ATOM     12  H           0     140.931 134.685 148.886  0.00  0.00     0.174 HD
ATOM     13  C           0     137.746 133.059 147.180  0.00  0.00     0.217 C 
ATOM     14  N           0     138.798 133.453 148.131  0.00  0.00    -0.191 N 
ATOM     15  N           0     137.332 131.673 147.401  0.00  0.00    -0.183 N 
ATOM     16  C           0     136.401 131.721 148.542  0.00  0.00     0.150 C 
ATOM     17  C           0     135.588 133.018 148.319  0.00  0.00     0.093 C 
ATOM     18  C           0     136.483 133.905 147.418  0.00  0.00     0.209 C 
ATOM     19  H           0     139.051 130.201 145.155  0.00  0.00     0.178 HD
ATOM     20  H           0     140.503 133.509 145.441  0.00  0.00     0.178 HD
ATOM     21  H           0     138.729 133.424 149.098  0.00  0.00     0.180 HD
ENDROOT
BRANCH   6  22
ATOM     22  C           0     136.824 132.157 144.228  0.00  0.00     0.206 C 
BRANCH  22  23
ATOM     23  O           0     136.654 133.377 143.460  0.00  0.00    -0.320 OA
BRANCH  23  24
ATOM     24  C           0     135.638 133.487 142.590  0.00  0.00     0.254 C 
ATOM     25  C           0     134.527 134.471 142.849  0.00  0.00     0.126 C 
ATOM     26  O           0     135.614 132.795 141.599  0.00  0.00    -0.266 OA
ENDBRANCH  23  24
ENDBRANCH  22  23
ENDBRANCH   6  22
BRANCH  18  27
ATOM     27  O           0     136.812 135.124 148.086  0.00  0.00    -0.362 OA
ATOM     28  H           0     136.018 135.405 148.561  0.00  0.00     0.213 HD
ENDBRANCH  18  27
BRANCH  18  29
ATOM     29  O           0     135.827 134.176 146.177  0.00  0.00    -0.362 OA
ATOM     30  H           0     136.470 134.002 145.477  0.00  0.00     0.213 HD
ENDBRANCH  18  29
TORSDOF 5
ENDMDL
