# created with PyMOL 2.3.4
@<TRIPOS>MOLECULE
ligand_out_0001
30 32 1                 
SMALL
USER_CHARGES
@<TRIPOS>ATOM
1	   N	135.577	132.658	147.114	N.3	1	UNK0	-0.235	
2	   N	136.829	134.418	146.182	N.3	1	UNK0	-0.218	
3	   N	136.255	136.087	143.656	N.3	1	UNK0	-0.216	
4	   N	134.294	136.764	142.518	N.3	1	UNK0	-0.235	
5	   N	134.691	134.519	143.149	N.3	1	UNK0	-0.191	
6	   N	135.597	133.000	144.799	N.3	1	UNK0	-0.183	
7	   C	135.981	133.329	146.073	C.3	1	UNK0	0.672	
8	   C	137.713	134.720	145.060	C.3	1	UNK0	0.151	
9	   C	136.974	134.797	143.737	C.3	1	UNK0	0.180	
10	   C	135.035	135.846	143.074	C.3	1	UNK0	0.670	
11	   C	135.875	133.758	143.578	C.3	1	UNK0	0.217	
12	   C	134.878	131.794	144.353	C.3	1	UNK0	0.150	
13	   C	135.573	131.399	143.029	C.3	1	UNK0	0.093	
14	   C	136.233	132.704	142.515	C.3	1	UNK0	0.209	
15	   C	138.781	133.630	144.964	C.2	1	UNK0	0.206	
16	   C	139.723	133.247	147.160	C.2	1	UNK0	0.254	
17	   C	140.559	133.733	148.316	C.3	1	UNK0	0.126	
18	   O	139.801	133.861	145.969	O.2	1	UNK0	-0.320	
19	   O	138.982	132.304	147.305	O.co2	1	UNK0	-0.266	
20	   O	135.693	133.068	141.244	O.2	1	UNK0	-0.362	
21	   O	137.650	132.545	142.430	O.2	1	UNK0	-0.362	
22	   H	135.870	132.916	148.002	 H	1	UNK0	0.174	
23	   H	134.978	131.903	147.002	 H	1	UNK0	0.174	
24	   H	134.597	137.686	142.499	 H	1	UNK0	0.174	
25	   H	133.442	136.526	142.124	 H	1	UNK0	0.174	
26	   H	136.835	134.965	146.983	 H	1	UNK0	0.178	
27	   H	136.586	136.948	143.960	 H	1	UNK0	0.178	
28	   H	133.818	134.147	142.950	 H	1	UNK0	0.180	
29	   H	134.924	132.502	141.094	 H	1	UNK0	0.213	
30	   H	137.888	131.833	143.040	 H	1	UNK0	0.213	
@<TRIPOS>BOND
1 1 7 1
2 1 22 1
3 1 23 1
4 2 8 1
5 2 26 1
6 3 10 1
7 3 27 1
8 4 24 1
9 4 25 1
10 5 28 1
11 6 12 1
12 2 7 1
13 6 7 1
14 8 9 1
15 8 15 1
16 3 9 1
17 9 11 1
18 4 10 1
19 5 10 1
20 5 11 1
21 6 11 1
22 11 14 1
23 12 13 1
24 13 14 1
25 14 20 2
26 14 21 2
27 15 18 2
28 16 17 1
29 16 19 2
30 16 18 2
31 20 29 1
32 21 30 1
@<TRIPOS>SUBSTRUCTURE
1	UNK0	1	GROUP	1 ****	UNK
