# created with PyMOL 2.3.4
@<TRIPOS>MOLECULE
ligand_out_0001
32 34 1                 
SMALL
USER_CHARGES
@<TRIPOS>ATOM
1	   N	135.358	136.857	143.200	N.3	1	UNK0	-0.235	
2	   N	133.844	135.058	143.286	N.3	1	UNK0	-0.218	
3	   N	133.958	132.503	145.003	N.3	1	UNK0	-0.216	
4	   N	134.859	131.959	147.122	N.3	1	UNK0	-0.235	
5	   N	136.111	133.071	145.452	N.3	1	UNK0	-0.191	
6	   N	136.117	134.690	143.655	N.3	1	UNK0	-0.183	
7	   N	133.551	136.151	139.825	N.pl3	1	UNK0	-0.346	
8	   C	135.120	135.588	143.376	C.3	1	UNK0	0.672	
9	   C	133.701	133.666	142.872	C.3	1	UNK0	0.151	
10	   C	134.574	132.724	143.678	C.3	1	UNK0	0.180	
11	   C	134.969	132.479	145.932	C.3	1	UNK0	0.670	
12	   C	135.951	133.279	144.003	C.3	1	UNK0	0.217	
13	   C	137.574	134.913	143.614	C.3	1	UNK0	0.150	
14	   C	138.142	133.619	142.982	C.3	1	UNK0	0.093	
15	   C	137.065	132.536	143.244	C.3	1	UNK0	0.209	
16	   C	134.081	133.549	141.395	C.2	1	UNK0	0.208	
17	   C	133.212	134.874	139.561	C.2	1	UNK0	0.358	
18	   O	132.980	134.016	140.572	O.2	1	UNK0	-0.302	
19	   O	133.115	134.497	138.410	O.co2	1	UNK0	-0.239	
20	   O	137.603	131.482	144.043	O.2	1	UNK0	-0.362	
21	   O	136.565	132.021	142.008	O.2	1	UNK0	-0.362	
22	   H	134.630	137.465	143.000	 H	1	UNK0	0.174	
23	   H	136.265	137.195	143.274	 H	1	UNK0	0.174	
24	   H	134.021	131.555	147.398	 H	1	UNK0	0.174	
25	   H	135.614	131.976	147.730	 H	1	UNK0	0.174	
26	   H	133.066	135.598	143.494	 H	1	UNK0	0.178	
27	   H	133.011	132.394	145.184	 H	1	UNK0	0.178	
28	   H	136.890	133.309	145.977	 H	1	UNK0	0.180	
29	   H	133.628	136.453	140.745	 H	1	UNK0	0.161	
30	   H	133.717	136.770	139.097	 H	1	UNK0	0.161	
31	   H	138.562	131.500	143.919	 H	1	UNK0	0.213	
32	   H	136.617	131.057	142.066	 H	1	UNK0	0.213	
@<TRIPOS>BOND
1 1 8 1
2 1 22 1
3 1 23 1
4 2 9 1
5 2 26 1
6 3 11 1
7 3 27 1
8 4 24 1
9 4 25 1
10 5 28 1
11 6 13 1
12 7 29 1
13 7 30 1
14 2 8 1
15 6 8 1
16 9 10 1
17 9 16 1
18 3 10 1
19 10 12 1
20 4 11 1
21 5 11 1
22 5 12 1
23 6 12 1
24 12 15 1
25 13 14 1
26 14 15 1
27 15 20 2
28 15 21 2
29 16 18 2
30 7 17 1
31 17 19 2
32 17 18 2
33 20 31 1
34 21 32 1
@<TRIPOS>SUBSTRUCTURE
1	UNK0	1	GROUP	1 ****	UNK
