# created with PyMOL 2.3.4
@<TRIPOS>MOLECULE
ligand_out_0001
30 32 1                 
SMALL
USER_CHARGES
@<TRIPOS>ATOM
1	   N	135.463	132.574	146.992	N.3	1	UNK0	-0.235	
2	   N	136.665	134.387	146.095	N.3	1	UNK0	-0.218	
3	   N	136.025	136.113	143.625	N.3	1	UNK0	-0.216	
4	   N	134.036	136.778	142.529	N.3	1	UNK0	-0.235	
5	   N	134.490	134.526	143.091	N.3	1	UNK0	-0.191	
6	   N	135.448	132.982	144.687	N.3	1	UNK0	-0.183	
7	   C	135.840	133.284	145.965	C.3	1	UNK0	0.672	
8	   C	137.528	134.741	144.973	C.3	1	UNK0	0.151	
9	   C	136.773	134.838	143.661	C.3	1	UNK0	0.180	
10	   C	134.803	135.861	143.050	C.3	1	UNK0	0.670	
11	   C	135.695	133.779	143.485	C.3	1	UNK0	0.217	
12	   C	134.750	131.773	144.216	C.3	1	UNK0	0.150	
13	   C	135.439	131.431	142.873	C.3	1	UNK0	0.093	
14	   C	136.063	132.764	142.389	C.3	1	UNK0	0.209	
15	   C	138.619	133.677	144.834	C.2	1	UNK0	0.206	
16	   C	140.395	132.772	146.207	C.2	1	UNK0	0.254	
17	   C	140.457	132.150	147.578	C.3	1	UNK0	0.126	
18	   O	139.531	133.769	145.960	O.2	1	UNK0	-0.320	
19	   O	141.125	132.375	145.330	O.co2	1	UNK0	-0.266	
20	   O	135.501	133.151	141.135	O.2	1	UNK0	-0.362	
21	   O	137.483	132.639	142.284	O.2	1	UNK0	-0.362	
22	   H	135.761	132.814	147.883	 H	1	UNK0	0.174	
23	   H	134.880	131.810	146.866	 H	1	UNK0	0.174	
24	   H	134.319	137.707	142.532	 H	1	UNK0	0.174	
25	   H	133.185	136.532	142.137	 H	1	UNK0	0.174	
26	   H	136.669	134.912	146.912	 H	1	UNK0	0.178	
27	   H	136.340	136.972	143.949	 H	1	UNK0	0.178	
28	   H	133.623	134.140	142.891	 H	1	UNK0	0.180	
29	   H	136.241	133.368	140.552	 H	1	UNK0	0.213	
30	   H	137.678	131.693	142.248	 H	1	UNK0	0.213	
@<TRIPOS>BOND
1 1 7 1
2 1 22 1
3 1 23 1
4 2 8 1
5 2 26 1
6 3 10 1
7 3 27 1
8 4 24 1
9 4 25 1
10 5 28 1
11 6 12 1
12 2 7 1
13 6 7 1
14 8 9 1
15 8 15 1
16 3 9 1
17 9 11 1
18 4 10 1
19 5 10 1
20 5 11 1
21 6 11 1
22 11 14 1
23 12 13 1
24 13 14 1
25 14 20 2
26 14 21 2
27 15 18 2
28 16 17 1
29 16 19 2
30 16 18 2
31 20 29 1
32 21 30 1
@<TRIPOS>SUBSTRUCTURE
1	UNK0	1	GROUP	1 ****	UNK
