# created with PyMOL 2.3.4
@<TRIPOS>MOLECULE
ligand_out_0001
32 34 1                 
SMALL
USER_CHARGES
@<TRIPOS>ATOM
1	   N	135.026	136.767	143.138	N.3	1	UNK0	-0.235	
2	   N	133.787	134.772	143.005	N.3	1	UNK0	-0.218	
3	   N	134.099	132.178	144.637	N.3	1	UNK0	-0.216	
4	   N	134.855	131.664	146.819	N.3	1	UNK0	-0.235	
5	   N	136.092	133.020	145.328	N.3	1	UNK0	-0.191	
6	   N	136.042	134.708	143.597	N.3	1	UNK0	-0.183	
7	   N	133.514	136.081	139.842	N.pl3	1	UNK0	-0.346	
8	   C	134.958	135.470	143.245	C.3	1	UNK0	0.672	
9	   C	133.888	133.394	142.531	C.3	1	UNK0	0.151	
10	   C	134.804	132.546	143.392	C.3	1	UNK0	0.180	
11	   C	135.006	132.251	145.665	C.3	1	UNK0	0.670	
12	   C	136.048	133.273	143.878	C.3	1	UNK0	0.217	
13	   C	137.448	135.136	143.715	C.3	1	UNK0	0.150	
14	   C	138.257	133.966	143.103	C.3	1	UNK0	0.093	
15	   C	137.326	132.731	143.214	C.3	1	UNK0	0.209	
16	   C	134.425	133.403	141.099	C.2	1	UNK0	0.208	
17	   C	133.526	134.825	139.354	C.2	1	UNK0	0.358	
18	   O	133.362	133.778	140.185	O.2	1	UNK0	-0.302	
19	   O	133.686	134.636	138.164	O.co2	1	UNK0	-0.239	
20	   O	137.930	131.726	144.030	O.2	1	UNK0	-0.362	
21	   O	137.030	132.212	141.917	O.2	1	UNK0	-0.362	
22	   H	134.241	137.275	142.883	 H	1	UNK0	0.174	
23	   H	135.863	137.225	143.317	 H	1	UNK0	0.174	
24	   H	134.062	131.134	146.993	 H	1	UNK0	0.174	
25	   H	135.536	131.757	147.503	 H	1	UNK0	0.174	
26	   H	132.923	135.186	143.149	 H	1	UNK0	0.178	
27	   H	133.164	131.928	144.715	 H	1	UNK0	0.178	
28	   H	136.774	133.339	145.940	 H	1	UNK0	0.180	
29	   H	133.386	136.232	140.792	 H	1	UNK0	0.161	
30	   H	133.631	136.836	139.243	 H	1	UNK0	0.161	
31	   H	138.874	131.933	144.076	 H	1	UNK0	0.213	
32	   H	136.096	131.961	141.923	 H	1	UNK0	0.213	
@<TRIPOS>BOND
1 1 8 1
2 1 22 1
3 1 23 1
4 2 9 1
5 2 26 1
6 3 11 1
7 3 27 1
8 4 24 1
9 4 25 1
10 5 28 1
11 6 13 1
12 7 29 1
13 7 30 1
14 2 8 1
15 6 8 1
16 9 10 1
17 9 16 1
18 3 10 1
19 10 12 1
20 4 11 1
21 5 11 1
22 5 12 1
23 6 12 1
24 12 15 1
25 13 14 1
26 14 15 1
27 15 20 2
28 15 21 2
29 16 18 2
30 7 17 1
31 17 19 2
32 17 18 2
33 20 31 1
34 21 32 1
@<TRIPOS>SUBSTRUCTURE
1	UNK0	1	GROUP	1 ****	UNK
