MODEL 1
REMARK VINA RESULT:      -7.9      0.000      0.000
REMARK  5 active torsions:
REMARK  status: ('A' for Active; 'I' for Inactive)
REMARK    1  A    between atoms: C_6  and  C_7 
REMARK    2  A    between atoms: C_7  and  O_8 
REMARK    3  A    between atoms: O_8  and  C_9 
REMARK       I    between atoms: C_9  and  N_10 
REMARK    4  A    between atoms: C_23  and  O_24 
REMARK    5  A    between atoms: C_23  and  O_25 
ROOT
ATOM      1  N           0     135.026 136.767 143.138  0.00  0.00    -0.235 N 
ATOM      2  H           0     134.241 137.275 142.883  0.00  0.00     0.174 HD
ATOM      3  H           0     135.863 137.225 143.317  0.00  0.00     0.174 HD
ATOM      4  C           0     134.958 135.470 143.245  0.00  0.00     0.672 C 
ATOM      5  N           0     133.787 134.772 143.005  0.00  0.00    -0.218 N 
ATOM      6  C           0     133.888 133.394 142.531  0.00  0.00     0.151 C 
ATOM      7  C           0     134.804 132.546 143.392  0.00  0.00     0.180 C 
ATOM      8  N           0     134.099 132.178 144.637  0.00  0.00    -0.216 N 
ATOM      9  C           0     135.006 132.251 145.665  0.00  0.00     0.670 C 
ATOM     10  N           0     134.855 131.664 146.819  0.00  0.00    -0.235 N 
ATOM     11  H           0     134.062 131.134 146.993  0.00  0.00     0.174 HD
ATOM     12  H           0     135.536 131.757 147.503  0.00  0.00     0.174 HD
ATOM     13  C           0     136.048 133.273 143.878  0.00  0.00     0.217 C 
ATOM     14  N           0     136.092 133.020 145.328  0.00  0.00    -0.191 N 
ATOM     15  N           0     136.042 134.708 143.597  0.00  0.00    -0.183 N 
ATOM     16  C           0     137.448 135.136 143.715  0.00  0.00     0.150 C 
ATOM     17  C           0     138.257 133.966 143.103  0.00  0.00     0.093 C 
ATOM     18  C           0     137.326 132.731 143.214  0.00  0.00     0.209 C 
ATOM     19  H           0     132.923 135.186 143.149  0.00  0.00     0.178 HD
ATOM     20  H           0     133.164 131.928 144.715  0.00  0.00     0.178 HD
ATOM     21  H           0     136.774 133.339 145.940  0.00  0.00     0.180 HD
ENDROOT
BRANCH   6  22
ATOM     22  C           0     134.425 133.403 141.099  0.00  0.00     0.208 C 
BRANCH  22  23
ATOM     23  O           0     133.362 133.778 140.185  0.00  0.00    -0.302 OA
BRANCH  23  24
ATOM     24  C           0     133.526 134.825 139.354  0.00  0.00     0.358 C 
ATOM     25  N           0     133.514 136.081 139.842  0.00  0.00    -0.346 N 
ATOM     26  H           0     133.386 136.232 140.792  0.00  0.00     0.161 HD
ATOM     27  H           0     133.631 136.836 139.243  0.00  0.00     0.161 HD
ATOM     28  O           0     133.686 134.636 138.164  0.00  0.00    -0.239 OA
ENDBRANCH  23  24
ENDBRANCH  22  23
ENDBRANCH   6  22
BRANCH  18  29
ATOM     29  O           0     137.930 131.726 144.030  0.00  0.00    -0.362 OA
ATOM     30  H           0     138.874 131.933 144.076  0.00  0.00     0.213 HD
ENDBRANCH  18  29
BRANCH  18  31
ATOM     31  O           0     137.030 132.212 141.917  0.00  0.00    -0.362 OA
ATOM     32  H           0     136.096 131.961 141.923  0.00  0.00     0.213 HD
ENDBRANCH  18  31
TORSDOF 5
ENDMDL
MODEL 2
REMARK VINA RESULT:      -7.5      1.913      5.616
REMARK  5 active torsions:
REMARK  status: ('A' for Active; 'I' for Inactive)
REMARK    1  A    between atoms: C_6  and  C_7 
REMARK    2  A    between atoms: C_7  and  O_8 
REMARK    3  A    between atoms: O_8  and  C_9 
REMARK       I    between atoms: C_9  and  N_10 
REMARK    4  A    between atoms: C_23  and  O_24 
REMARK    5  A    between atoms: C_23  and  O_25 
ROOT
ATOM      1  N           0     134.754 131.887 146.527  0.00  0.00    -0.235 N 
ATOM      2  H           0     134.987 131.935 147.467  0.00  0.00     0.174 HD
ATOM      3  H           0     134.085 131.252 146.225  0.00  0.00     0.174 HD
ATOM      4  C           0     135.338 132.676 145.669  0.00  0.00     0.672 C 
ATOM      5  N           0     136.294 133.601 146.050  0.00  0.00    -0.218 N 
ATOM      6  C           0     137.315 133.981 145.078  0.00  0.00     0.151 C 
ATOM      7  C           0     136.725 134.398 143.745  0.00  0.00     0.180 C 
ATOM      8  N           0     136.178 135.766 143.862  0.00  0.00    -0.216 N 
ATOM      9  C           0     135.002 135.803 143.153  0.00  0.00     0.670 C 
ATOM     10  N           0     134.434 136.898 142.732  0.00  0.00    -0.235 N 
ATOM     11  H           0     134.845 137.758 142.915  0.00  0.00     0.174 HD
ATOM     12  H           0     133.603 136.854 142.235  0.00  0.00     0.174 HD
ATOM     13  C           0     135.534 133.563 143.304  0.00  0.00     0.217 C 
ATOM     14  N           0     134.497 134.544 142.942  0.00  0.00    -0.191 N 
ATOM     15  N           0     135.047 132.641 144.330  0.00  0.00    -0.183 N 
ATOM     16  C           0     134.236 131.645 143.606  0.00  0.00     0.150 C 
ATOM     17  C           0     135.009 131.408 142.286  0.00  0.00     0.093 C 
ATOM     18  C           0     135.867 132.683 142.087  0.00  0.00     0.209 C 
ATOM     19  H           0     136.286 133.987 146.940  0.00  0.00     0.178 HD
ATOM     20  H           0     136.576 136.504 144.350  0.00  0.00     0.178 HD
ATOM     21  H           0     133.610 134.336 142.610  0.00  0.00     0.180 HD
ENDROOT
BRANCH   6  22
ATOM     22  C           0     138.250 132.792 144.854  0.00  0.00     0.208 C 
BRANCH  22  23
ATOM     23  O           0     138.769 132.335 146.130  0.00  0.00    -0.302 OA
BRANCH  23  24
ATOM     24  C           0     138.674 131.036 146.470  0.00  0.00     0.358 C 
ATOM     25  N           0     139.787 130.284 146.577  0.00  0.00    -0.346 N 
ATOM     26  H           0     140.658 130.679 146.408  0.00  0.00     0.161 HD
ATOM     27  H           0     139.719 129.348 146.821  0.00  0.00     0.161 HD
ATOM     28  O           0     137.584 130.542 146.682  0.00  0.00    -0.239 OA
ENDBRANCH  23  24
ENDBRANCH  22  23
ENDBRANCH   6  22
BRANCH  18  29
ATOM     29  O           0     135.504 133.343 140.873  0.00  0.00    -0.362 OA
ATOM     30  H           0     135.240 134.242 141.113  0.00  0.00     0.213 HD
ENDBRANCH  18  29
BRANCH  18  31
ATOM     31  O           0     137.258 132.352 142.079  0.00  0.00    -0.362 OA
ATOM     32  H           0     137.725 133.102 142.472  0.00  0.00     0.213 HD
ENDBRANCH  18  31
TORSDOF 5
ENDMDL
MODEL 3
REMARK VINA RESULT:      -6.8      5.315      9.837
REMARK  5 active torsions:
REMARK  status: ('A' for Active; 'I' for Inactive)
REMARK    1  A    between atoms: C_6  and  C_7 
REMARK    2  A    between atoms: C_7  and  O_8 
REMARK    3  A    between atoms: O_8  and  C_9 
REMARK       I    between atoms: C_9  and  N_10 
REMARK    4  A    between atoms: C_23  and  O_24 
REMARK    5  A    between atoms: C_23  and  O_25 
ROOT
ATOM      1  N           0     131.417 132.210 134.984  0.00  0.00    -0.235 N 
ATOM      2  H           0     130.837 131.868 135.681  0.00  0.00     0.174 HD
ATOM      3  H           0     131.785 131.605 134.319  0.00  0.00     0.174 HD
ATOM      4  C           0     131.701 133.481 134.936  0.00  0.00     0.672 C 
ATOM      5  N           0     131.198 134.384 135.857  0.00  0.00    -0.218 N 
ATOM      6  C           0     131.981 135.580 136.151  0.00  0.00     0.151 C 
ATOM      7  C           0     132.397 136.328 134.899  0.00  0.00     0.180 C 
ATOM      8  N           0     131.240 137.086 134.378  0.00  0.00    -0.216 N 
ATOM      9  C           0     131.266 136.990 133.008  0.00  0.00     0.670 C 
ATOM     10  N           0     130.639 137.804 132.205  0.00  0.00    -0.235 N 
ATOM     11  H           0     130.113 138.533 132.568  0.00  0.00     0.174 HD
ATOM     12  H           0     130.700 137.680 131.245  0.00  0.00     0.174 HD
ATOM     13  C           0     132.797 135.428 133.741  0.00  0.00     0.217 C 
ATOM     14  N           0     132.033 135.932 132.588  0.00  0.00    -0.191 N 
ATOM     15  N           0     132.521 134.010 133.973  0.00  0.00    -0.183 N 
ATOM     16  C           0     133.353 133.285 132.996  0.00  0.00     0.150 C 
ATOM     17  C           0     134.677 134.086 132.951  0.00  0.00     0.093 C 
ATOM     18  C           0     134.304 135.508 133.444  0.00  0.00     0.209 C 
ATOM     19  H           0     130.348 134.225 136.294  0.00  0.00     0.178 HD
ATOM     20  H           0     130.582 137.564 134.906  0.00  0.00     0.178 HD
ATOM     21  H           0     132.068 135.579 131.686  0.00  0.00     0.180 HD
ENDROOT
BRANCH   6  22
ATOM     22  C           0     133.237 135.171 136.922  0.00  0.00     0.208 C 
BRANCH  22  23
ATOM     23  O           0     132.861 134.361 138.066  0.00  0.00    -0.302 OA
BRANCH  23  24
ATOM     24  C           0     133.014 134.846 139.314  0.00  0.00     0.358 C 
ATOM     25  N           0     133.539 136.073 139.500  0.00  0.00    -0.346 N 
ATOM     26  H           0     133.807 136.608 138.736  0.00  0.00     0.161 HD
ATOM     27  H           0     133.649 136.422 140.399  0.00  0.00     0.161 HD
ATOM     28  O           0     132.677 134.177 140.270  0.00  0.00    -0.239 OA
ENDBRANCH  23  24
ENDBRANCH  22  23
ENDBRANCH   6  22
BRANCH  18  29
ATOM     29  O           0     134.566 136.473 132.424  0.00  0.00    -0.362 OA
ATOM     30  H           0     133.807 137.073 132.406  0.00  0.00     0.213 HD
ENDBRANCH  18  29
BRANCH  18  31
ATOM     31  O           0     135.029 135.829 134.634  0.00  0.00    -0.362 OA
ATOM     32  H           0     134.603 136.607 135.018  0.00  0.00     0.213 HD
ENDBRANCH  18  31
TORSDOF 5
ENDMDL
MODEL 4
REMARK VINA RESULT:      -6.8      2.899      4.770
REMARK  5 active torsions:
REMARK  status: ('A' for Active; 'I' for Inactive)
REMARK    1  A    between atoms: C_6  and  C_7 
REMARK    2  A    between atoms: C_7  and  O_8 
REMARK    3  A    between atoms: O_8  and  C_9 
REMARK       I    between atoms: C_9  and  N_10 
REMARK    4  A    between atoms: C_23  and  O_24 
REMARK    5  A    between atoms: C_23  and  O_25 
ROOT
ATOM      1  N           0     139.643 130.611 145.999  0.00  0.00    -0.235 N 
ATOM      2  H           0     140.393 130.765 145.404  0.00  0.00     0.174 HD
ATOM      3  H           0     139.681 129.895 146.653  0.00  0.00     0.174 HD
ATOM      4  C           0     138.585 131.369 145.925  0.00  0.00     0.672 C 
ATOM      5  N           0     138.484 132.406 145.014  0.00  0.00    -0.218 N 
ATOM      6  C           0     137.156 132.788 144.545  0.00  0.00     0.151 C 
ATOM      7  C           0     136.181 133.029 145.681  0.00  0.00     0.180 C 
ATOM      8  N           0     136.460 134.347 146.289  0.00  0.00    -0.216 N 
ATOM      9  C           0     136.316 134.215 147.648  0.00  0.00     0.670 C 
ATOM     10  N           0     136.127 135.213 148.465  0.00  0.00    -0.235 N 
ATOM     11  H           0     136.081 136.119 148.121  0.00  0.00     0.174 HD
ATOM     12  H           0     136.033 135.050 149.417  0.00  0.00     0.174 HD
ATOM     13  C           0     136.324 132.055 146.839  0.00  0.00     0.217 C 
ATOM     14  N           0     136.394 132.902 148.041  0.00  0.00    -0.191 N 
ATOM     15  N           0     137.499 131.188 146.741  0.00  0.00    -0.183 N 
ATOM     16  C           0     137.231 130.063 147.655  0.00  0.00     0.150 C 
ATOM     17  C           0     135.720 129.778 147.480  0.00  0.00     0.093 C 
ATOM     18  C           0     135.120 131.102 146.942  0.00  0.00     0.209 C 
ATOM     19  H           0     139.276 132.868 144.697  0.00  0.00     0.178 HD
ATOM     20  H           0     136.700 135.158 145.814  0.00  0.00     0.178 HD
ATOM     21  H           0     136.478 132.587 148.954  0.00  0.00     0.180 HD
ENDROOT
BRANCH   6  22
ATOM     22  C           0     136.608 131.671 143.654  0.00  0.00     0.208 C 
BRANCH  22  23
ATOM     23  O           0     135.302 132.051 143.148  0.00  0.00    -0.302 OA
BRANCH  23  24
ATOM     24  C           0     135.187 133.075 142.280  0.00  0.00     0.358 C 
ATOM     25  N           0     135.868 133.053 141.118  0.00  0.00    -0.346 N 
ATOM     26  H           0     136.441 132.299 140.905  0.00  0.00     0.161 HD
ATOM     27  H           0     135.786 133.791 140.493  0.00  0.00     0.161 HD
ATOM     28  O           0     134.470 134.019 142.547  0.00  0.00    -0.239 OA
ENDBRANCH  23  24
ENDBRANCH  22  23
ENDBRANCH   6  22
BRANCH  18  29
ATOM     29  O           0     134.148 131.615 147.854  0.00  0.00    -0.362 OA
ATOM     30  H           0     134.068 130.970 148.569  0.00  0.00     0.213 HD
ENDBRANCH  18  29
BRANCH  18  31
ATOM     31  O           0     134.538 130.897 145.653  0.00  0.00    -0.362 OA
ATOM     32  H           0     134.808 131.646 145.102  0.00  0.00     0.213 HD
ENDBRANCH  18  31
TORSDOF 5
ENDMDL
MODEL 5
REMARK VINA RESULT:      -6.7      2.976      4.430
REMARK  5 active torsions:
REMARK  status: ('A' for Active; 'I' for Inactive)
REMARK    1  A    between atoms: C_6  and  C_7 
REMARK    2  A    between atoms: C_7  and  O_8 
REMARK    3  A    between atoms: O_8  and  C_9 
REMARK       I    between atoms: C_9  and  N_10 
REMARK    4  A    between atoms: C_23  and  O_24 
REMARK    5  A    between atoms: C_23  and  O_25 
ROOT
ATOM      1  N           0     136.068 134.616 147.185  0.00  0.00    -0.235 N 
ATOM      2  H           0     135.599 135.328 146.724  0.00  0.00     0.174 HD
ATOM      3  H           0     136.553 134.806 148.004  0.00  0.00     0.174 HD
ATOM      4  C           0     136.045 133.403 146.709  0.00  0.00     0.672 C 
ATOM      5  N           0     135.364 133.081 145.548  0.00  0.00    -0.218 N 
ATOM      6  C           0     135.850 131.959 144.749  0.00  0.00     0.151 C 
ATOM      7  C           0     136.052 130.701 145.572  0.00  0.00     0.180 C 
ATOM      8  N           0     134.739 130.078 145.839  0.00  0.00    -0.216 N 
ATOM      9  C           0     134.756 129.611 147.130  0.00  0.00     0.670 C 
ATOM     10  N           0     133.939 128.707 147.593  0.00  0.00    -0.235 N 
ATOM     11  H           0     133.265 128.321 147.013  0.00  0.00     0.174 HD
ATOM     12  H           0     134.007 128.420 148.517  0.00  0.00     0.174 HD
ATOM     13  C           0     136.627 130.950 146.957  0.00  0.00     0.217 C 
ATOM     14  N           0     135.741 130.212 147.873  0.00  0.00    -0.191 N 
ATOM     15  N           0     136.696 132.365 147.322  0.00  0.00    -0.183 N 
ATOM     16  C           0     137.655 132.433 148.441  0.00  0.00     0.150 C 
ATOM     17  C           0     138.752 131.407 148.067  0.00  0.00     0.093 C 
ATOM     18  C           0     138.067 130.424 147.085  0.00  0.00     0.209 C 
ATOM     19  H           0     134.584 133.586 145.272  0.00  0.00     0.178 HD
ATOM     20  H           0     133.998 130.011 145.216  0.00  0.00     0.178 HD
ATOM     21  H           0     135.839 130.158 148.836  0.00  0.00     0.180 HD
ENDROOT
BRANCH   6  22
ATOM     22  C           0     137.183 132.350 144.110  0.00  0.00     0.208 C 
BRANCH  22  23
ATOM     23  O           0     136.953 133.344 143.078  0.00  0.00    -0.302 OA
BRANCH  23  24
ATOM     24  C           0     137.503 134.569 143.187  0.00  0.00     0.358 C 
ATOM     25  N           0     136.746 135.615 143.572  0.00  0.00    -0.346 N 
ATOM     26  H           0     135.805 135.487 143.771  0.00  0.00     0.161 HD
ATOM     27  H           0     137.142 136.498 143.650  0.00  0.00     0.161 HD
ATOM     28  O           0     138.682 134.729 142.939  0.00  0.00    -0.239 OA
ENDBRANCH  23  24
ENDBRANCH  22  23
ENDBRANCH   6  22
BRANCH  18  29
ATOM     29  O           0     138.073 129.100 147.622  0.00  0.00    -0.362 OA
ATOM     30  H           0     138.848 129.034 148.196  0.00  0.00     0.213 HD
ENDBRANCH  18  29
BRANCH  18  31
ATOM     31  O           0     138.721 130.451 145.815  0.00  0.00    -0.362 OA
ATOM     32  H           0     139.254 129.646 145.758  0.00  0.00     0.213 HD
ENDBRANCH  18  31
TORSDOF 5
ENDMDL
MODEL 6
REMARK VINA RESULT:      -6.5      2.907      5.727
REMARK  5 active torsions:
REMARK  status: ('A' for Active; 'I' for Inactive)
REMARK    1  A    between atoms: C_6  and  C_7 
REMARK    2  A    between atoms: C_7  and  O_8 
REMARK    3  A    between atoms: O_8  and  C_9 
REMARK       I    between atoms: C_9  and  N_10 
REMARK    4  A    between atoms: C_23  and  O_24 
REMARK    5  A    between atoms: C_23  and  O_25 
ROOT
ATOM      1  N           0     138.830 130.760 145.489  0.00  0.00    -0.235 N 
ATOM      2  H           0     138.963 130.066 146.153  0.00  0.00     0.174 HD
ATOM      3  H           0     139.577 131.064 144.950  0.00  0.00     0.174 HD
ATOM      4  C           0     137.648 131.281 145.317  0.00  0.00     0.672 C 
ATOM      5  N           0     136.550 130.878 146.057  0.00  0.00    -0.218 N 
ATOM      6  C           0     135.479 131.843 146.289  0.00  0.00     0.151 C 
ATOM      7  C           0     135.001 132.502 145.009  0.00  0.00     0.180 C 
ATOM      8  N           0     134.134 131.560 144.271  0.00  0.00    -0.216 N 
ATOM      9  C           0     134.426 131.688 142.935  0.00  0.00     0.670 C 
ATOM     10  N           0     133.637 131.300 141.973  0.00  0.00    -0.235 N 
ATOM     11  H           0     132.783 130.890 142.182  0.00  0.00     0.174 HD
ATOM     12  H           0     133.905 131.420 141.048  0.00  0.00     0.174 HD
ATOM     13  C           0     136.112 132.826 144.024  0.00  0.00     0.217 C 
ATOM     14  N           0     135.650 132.276 142.738  0.00  0.00    -0.191 N 
ATOM     15  N           0     137.412 132.268 144.396  0.00  0.00    -0.183 N 
ATOM     16  C           0     138.403 133.032 143.615  0.00  0.00     0.150 C 
ATOM     17  C           0     137.860 134.482 143.623  0.00  0.00     0.093 C 
ATOM     18  C           0     136.340 134.342 143.892  0.00  0.00     0.209 C 
ATOM     19  H           0     136.493 129.978 146.412  0.00  0.00     0.178 HD
ATOM     20  H           0     133.478 130.959 144.659  0.00  0.00     0.178 HD
ATOM     21  H           0     136.129 132.323 141.896  0.00  0.00     0.180 HD
ENDROOT
BRANCH   6  22
ATOM     22  C           0     135.989 132.927 147.241  0.00  0.00     0.208 C 
BRANCH  22  23
ATOM     23  O           0     135.298 132.818 148.513  0.00  0.00    -0.302 OA
BRANCH  23  24
ATOM     24  C           0     134.648 131.682 148.832  0.00  0.00     0.358 C 
ATOM     25  N           0     133.300 131.660 148.851  0.00  0.00    -0.346 N 
ATOM     26  H           0     132.798 132.461 148.635  0.00  0.00     0.161 HD
ATOM     27  H           0     132.832 130.842 149.082  0.00  0.00     0.161 HD
ATOM     28  O           0     135.277 130.678 149.102  0.00  0.00    -0.239 OA
ENDBRANCH  23  24
ENDBRANCH  22  23
ENDBRANCH   6  22
BRANCH  18  29
ATOM     29  O           0     135.590 134.870 142.796  0.00  0.00    -0.362 OA
ATOM     30  H           0     134.893 135.423 143.176  0.00  0.00     0.213 HD
ENDBRANCH  18  29
BRANCH  18  31
ATOM     31  O           0     135.985 135.005 145.107  0.00  0.00    -0.362 OA
ATOM     32  H           0     136.480 134.572 145.816  0.00  0.00     0.213 HD
ENDBRANCH  18  31
TORSDOF 5
ENDMDL
MODEL 7
REMARK VINA RESULT:      -6.5      4.116      6.354
REMARK  5 active torsions:
REMARK  status: ('A' for Active; 'I' for Inactive)
REMARK    1  A    between atoms: C_6  and  C_7 
REMARK    2  A    between atoms: C_7  and  O_8 
REMARK    3  A    between atoms: O_8  and  C_9 
REMARK       I    between atoms: C_9  and  N_10 
REMARK    4  A    between atoms: C_23  and  O_24 
REMARK    5  A    between atoms: C_23  and  O_25 
ROOT
ATOM      1  N           0     135.888 134.620 147.688  0.00  0.00    -0.235 N 
ATOM      2  H           0     136.319 135.487 147.630  0.00  0.00     0.174 HD
ATOM      3  H           0     135.238 134.447 148.388  0.00  0.00     0.174 HD
ATOM      4  C           0     136.178 133.687 146.824  0.00  0.00     0.672 C 
ATOM      5  N           0     137.094 133.886 145.806  0.00  0.00    -0.218 N 
ATOM      6  C           0     137.826 132.729 145.298  0.00  0.00     0.151 C 
ATOM      7  C           0     136.912 131.577 144.927  0.00  0.00     0.180 C 
ATOM      8  N           0     136.264 131.868 143.631  0.00  0.00    -0.216 N 
ATOM      9  C           0     134.962 131.439 143.712  0.00  0.00     0.670 C 
ATOM     10  N           0     134.204 131.199 142.680  0.00  0.00    -0.235 N 
ATOM     11  H           0     134.553 131.323 141.783  0.00  0.00     0.174 HD
ATOM     12  H           0     133.291 130.897 142.808  0.00  0.00     0.174 HD
ATOM     13  C           0     135.746 131.377 145.881  0.00  0.00     0.217 C 
ATOM     14  N           0     134.558 131.294 145.016  0.00  0.00    -0.191 N 
ATOM     15  N           0     135.601 132.446 146.870  0.00  0.00    -0.183 N 
ATOM     16  C           0     134.757 131.878 147.937  0.00  0.00     0.150 C 
ATOM     17  C           0     135.234 130.411 148.065  0.00  0.00     0.093 C 
ATOM     18  C           0     135.888 130.081 146.699  0.00  0.00     0.209 C 
ATOM     19  H           0     137.245 134.770 145.438  0.00  0.00     0.178 HD
ATOM     20  H           0     136.682 132.287 142.861  0.00  0.00     0.178 HD
ATOM     21  H           0     133.646 131.157 145.315  0.00  0.00     0.180 HD
ENDROOT
BRANCH   6  22
ATOM     22  C           0     138.806 132.255 146.373  0.00  0.00     0.208 C 
BRANCH  22  23
ATOM     23  O           0     139.603 131.160 145.852  0.00  0.00    -0.302 OA
BRANCH  23  24
ATOM     24  C           0     140.573 130.612 146.610  0.00  0.00     0.358 C 
ATOM     25  N           0     140.930 129.326 146.421  0.00  0.00    -0.346 N 
ATOM     26  H           0     140.489 128.795 145.739  0.00  0.00     0.161 HD
ATOM     27  H           0     141.628 128.931 146.967  0.00  0.00     0.161 HD
ATOM     28  O           0     141.125 131.277 147.463  0.00  0.00    -0.239 OA
ENDBRANCH  23  24
ENDBRANCH  22  23
ENDBRANCH   6  22
BRANCH  18  29
ATOM     29  O           0     135.195 129.006 146.063  0.00  0.00    -0.362 OA
ATOM     30  H           0     134.639 129.399 145.376  0.00  0.00     0.213 HD
ENDBRANCH  18  29
BRANCH  18  31
ATOM     31  O           0     137.268 129.752 146.873  0.00  0.00    -0.362 OA
ATOM     32  H           0     137.307 128.805 147.064  0.00  0.00     0.213 HD
ENDBRANCH  18  31
TORSDOF 5
ENDMDL
MODEL 8
REMARK VINA RESULT:      -6.4      4.689      6.939
REMARK  5 active torsions:
REMARK  status: ('A' for Active; 'I' for Inactive)
REMARK    1  A    between atoms: C_6  and  C_7 
REMARK    2  A    between atoms: C_7  and  O_8 
REMARK    3  A    between atoms: O_8  and  C_9 
REMARK       I    between atoms: C_9  and  N_10 
REMARK    4  A    between atoms: C_23  and  O_24 
REMARK    5  A    between atoms: C_23  and  O_25 
ROOT
ATOM      1  N           0     134.248 132.013 149.401  0.00  0.00    -0.235 N 
ATOM      2  H           0     133.806 131.705 150.207  0.00  0.00     0.174 HD
ATOM      3  H           0     134.137 132.932 149.108  0.00  0.00     0.174 HD
ATOM      4  C           0     134.994 131.195 148.712  0.00  0.00     0.672 C 
ATOM      5  N           0     135.186 129.878 149.091  0.00  0.00    -0.218 N 
ATOM      6  C           0     135.463 128.893 148.050  0.00  0.00     0.151 C 
ATOM      7  C           0     136.593 129.316 147.131  0.00  0.00     0.180 C 
ATOM      8  N           0     137.884 129.106 147.820  0.00  0.00    -0.216 N 
ATOM      9  C           0     138.697 130.168 147.508  0.00  0.00     0.670 C 
ATOM     10  N           0     139.995 130.157 147.627  0.00  0.00    -0.235 N 
ATOM     11  H           0     140.445 129.362 147.954  0.00  0.00     0.174 HD
ATOM     12  H           0     140.510 130.943 147.389  0.00  0.00     0.174 HD
ATOM     13  C           0     136.596 130.797 146.791  0.00  0.00     0.217 C 
ATOM     14  N           0     137.974 131.244 147.056  0.00  0.00    -0.191 N 
ATOM     15  N           0     135.633 131.582 147.564  0.00  0.00    -0.183 N 
ATOM     16  C           0     135.462 132.839 146.812  0.00  0.00     0.150 C 
ATOM     17  C           0     135.484 132.403 145.327  0.00  0.00     0.093 C 
ATOM     18  C           0     136.240 131.049 145.316  0.00  0.00     0.209 C 
ATOM     19  H           0     135.139 129.617 150.024  0.00  0.00     0.178 HD
ATOM     20  H           0     138.116 128.355 148.389  0.00  0.00     0.178 HD
ATOM     21  H           0     138.313 132.144 146.930  0.00  0.00     0.180 HD
ENDROOT
BRANCH   6  22
ATOM     22  C           0     134.198 128.689 147.215  0.00  0.00     0.208 C 
BRANCH  22  23
ATOM     23  O           0     133.351 127.698 147.852  0.00  0.00    -0.302 OA
BRANCH  23  24
ATOM     24  C           0     132.042 127.953 148.043  0.00  0.00     0.358 C 
ATOM     25  N           0     131.662 129.051 148.727  0.00  0.00    -0.346 N 
ATOM     26  H           0     132.332 129.657 149.082  0.00  0.00     0.161 HD
ATOM     27  H           0     130.720 129.235 148.865  0.00  0.00     0.161 HD
ATOM     28  O           0     131.204 127.194 147.598  0.00  0.00    -0.239 OA
ENDBRANCH  23  24
ENDBRANCH  22  23
ENDBRANCH   6  22
BRANCH  18  29
ATOM     29  O           0     137.423 131.146 144.522  0.00  0.00    -0.362 OA
ATOM     30  H           0     137.377 131.992 144.055  0.00  0.00     0.213 HD
ENDBRANCH  18  29
BRANCH  18  31
ATOM     31  O           0     135.391 130.009 144.825  0.00  0.00    -0.362 OA
ATOM     32  H           0     134.515 130.161 145.206  0.00  0.00     0.213 HD
ENDBRANCH  18  31
TORSDOF 5
ENDMDL
MODEL 9
REMARK VINA RESULT:      -6.4      6.003     10.475
REMARK  5 active torsions:
REMARK  status: ('A' for Active; 'I' for Inactive)
REMARK    1  A    between atoms: C_6  and  C_7 
REMARK    2  A    between atoms: C_7  and  O_8 
REMARK    3  A    between atoms: O_8  and  C_9 
REMARK       I    between atoms: C_9  and  N_10 
REMARK    4  A    between atoms: C_23  and  O_24 
REMARK    5  A    between atoms: C_23  and  O_25 
ROOT
ATOM      1  N           0     134.750 134.014 133.219  0.00  0.00    -0.235 N 
ATOM      2  H           0     135.295 133.345 133.660  0.00  0.00     0.174 HD
ATOM      3  H           0     135.100 134.497 132.453  0.00  0.00     0.174 HD
ATOM      4  C           0     133.545 134.263 133.649  0.00  0.00     0.672 C 
ATOM      5  N           0     132.998 133.598 134.734  0.00  0.00    -0.218 N 
ATOM      6  C           0     131.992 134.290 135.534  0.00  0.00     0.151 C 
ATOM      7  C           0     130.872 134.869 134.690  0.00  0.00     0.180 C 
ATOM      8  N           0     129.956 133.782 134.287  0.00  0.00    -0.216 N 
ATOM      9  C           0     129.580 134.018 132.987  0.00  0.00     0.670 C 
ATOM     10  N           0     128.527 133.496 132.423  0.00  0.00    -0.235 N 
ATOM     11  H           0     127.953 132.899 132.927  0.00  0.00     0.174 HD
ATOM     12  H           0     128.318 133.705 131.499  0.00  0.00     0.174 HD
ATOM     13  C           0     131.334 135.467 133.371  0.00  0.00     0.217 C 
ATOM     14  N           0     130.449 134.872 132.356  0.00  0.00    -0.191 N 
ATOM     15  N           0     132.739 135.203 133.062  0.00  0.00    -0.183 N 
ATOM     16  C           0     133.106 136.196 132.036  0.00  0.00     0.150 C 
ATOM     17  C           0     132.369 137.486 132.470  0.00  0.00     0.093 C 
ATOM     18  C           0     131.192 136.999 133.354  0.00  0.00     0.209 C 
ATOM     19  H           0     133.277 132.697 134.956  0.00  0.00     0.178 HD
ATOM     20  H           0     129.671 133.036 134.839  0.00  0.00     0.178 HD
ATOM     21  H           0     130.475 135.054 131.403  0.00  0.00     0.180 HD
ENDROOT
BRANCH   6  22
ATOM     22  C           0     132.668 135.427 136.302  0.00  0.00     0.208 C 
BRANCH  22  23
ATOM     23  O           0     133.542 134.871 137.319  0.00  0.00    -0.302 OA
BRANCH  23  24
ATOM     24  C           0     133.190 134.935 138.618  0.00  0.00     0.358 C 
ATOM     25  N           0     133.573 135.985 139.370  0.00  0.00    -0.346 N 
ATOM     26  H           0     134.103 136.697 138.976  0.00  0.00     0.161 HD
ATOM     27  H           0     133.321 136.031 140.305  0.00  0.00     0.161 HD
ATOM     28  O           0     132.526 134.044 139.111  0.00  0.00    -0.239 OA
ENDBRANCH  23  24
ENDBRANCH  22  23
ENDBRANCH   6  22
BRANCH  18  29
ATOM     29  O           0     129.944 137.383 132.775  0.00  0.00    -0.362 OA
ATOM     30  H           0     129.848 136.877 131.956  0.00  0.00     0.213 HD
ENDBRANCH  18  29
BRANCH  18  31
ATOM     31  O           0     131.312 137.524 134.678  0.00  0.00    -0.362 OA
ATOM     32  H           0     130.415 137.711 134.986  0.00  0.00     0.213 HD
ENDBRANCH  18  31
TORSDOF 5
ENDMDL
