# created with PyMOL 2.3.4
@<TRIPOS>MOLECULE
ligand_out_0001
32 34 1                 
SMALL
USER_CHARGES
@<TRIPOS>ATOM
1	   N	135.491	132.587	146.986	N.3	1	UNK0	-0.235	
2	   N	136.722	134.379	146.086	N.3	1	UNK0	-0.218	
3	   N	136.098	136.124	143.625	N.3	1	UNK0	-0.216	
4	   N	134.115	136.831	142.545	N.3	1	UNK0	-0.235	
5	   N	134.529	134.567	143.098	N.3	1	UNK0	-0.191	
6	   N	135.469	133.001	144.682	N.3	1	UNK0	-0.183	
7	   N	140.051	131.436	147.178	N.pl3	1	UNK0	-0.337	
8	   C	135.875	133.292	145.959	C.3	1	UNK0	0.672	
9	   C	137.584	134.719	144.958	C.3	1	UNK0	0.151	
10	   C	136.821	134.834	143.653	C.3	1	UNK0	0.180	
11	   C	134.868	135.897	143.058	C.3	1	UNK0	0.670	
12	   C	135.723	133.797	143.481	C.3	1	UNK0	0.217	
13	   C	134.743	131.807	144.213	C.3	1	UNK0	0.150	
14	   C	135.416	131.455	142.864	C.3	1	UNK0	0.093	
15	   C	136.062	132.778	142.380	C.3	1	UNK0	0.209	
16	   C	138.653	133.635	144.808	C.2	1	UNK0	0.208	
17	   C	140.169	132.383	146.226	C.2	1	UNK0	0.362	
18	   C	141.073	130.395	147.308	C.3	1	UNK0	0.154	
19	   C	138.900	131.448	148.085	C.3	1	UNK0	0.154	
20	   O	139.228	133.340	146.108	O.2	1	UNK0	-0.302	
21	   O	141.123	132.373	145.475	O.co2	1	UNK0	-0.238	
22	   O	135.498	133.180	141.130	O.2	1	UNK0	-0.362	
23	   O	137.479	132.626	142.263	O.2	1	UNK0	-0.362	
24	   H	135.801	132.819	147.876	 H	1	UNK0	0.174	
25	   H	134.892	131.834	146.861	 H	1	UNK0	0.174	
26	   H	134.415	137.752	142.549	 H	1	UNK0	0.174	
27	   H	133.255	136.602	142.159	 H	1	UNK0	0.174	
28	   H	136.742	134.901	146.903	 H	1	UNK0	0.178	
29	   H	136.431	136.975	143.949	 H	1	UNK0	0.178	
30	   H	133.653	134.199	142.903	 H	1	UNK0	0.180	
31	   H	136.140	132.945	140.446	 H	1	UNK0	0.213	
32	   H	137.757	133.173	141.517	 H	1	UNK0	0.213	
@<TRIPOS>BOND
1 1 8 1
2 1 24 1
3 1 25 1
4 2 9 1
5 2 28 1
6 3 11 1
7 3 29 1
8 4 26 1
9 4 27 1
10 5 30 1
11 6 13 1
12 7 18 1
13 7 19 1
14 2 8 1
15 6 8 1
16 9 10 1
17 9 16 1
18 3 10 1
19 10 12 1
20 4 11 1
21 5 11 1
22 5 12 1
23 6 12 1
24 12 15 1
25 13 14 1
26 14 15 1
27 15 22 2
28 15 23 2
29 16 20 2
30 7 17 1
31 17 21 2
32 17 20 2
33 22 31 1
34 23 32 1
@<TRIPOS>SUBSTRUCTURE
1	UNK0	1	GROUP	1 ****	UNK
