# created with PyMOL 2.3.4
@<TRIPOS>MOLECULE
ligand_out_0001
32 34 1                 
SMALL
USER_CHARGES
@<TRIPOS>ATOM
1	   N	134.854	136.699	143.083	N.3	1	UNK0	-0.235	
2	   N	133.768	134.618	142.919	N.3	1	UNK0	-0.218	
3	   N	134.179	132.073	144.604	N.3	1	UNK0	-0.216	
4	   N	134.857	131.641	146.830	N.3	1	UNK0	-0.235	
5	   N	136.070	133.064	145.382	N.3	1	UNK0	-0.191	
6	   N	135.988	134.724	143.624	N.3	1	UNK0	-0.183	
7	   N	134.053	135.209	138.406	N.pl3	1	UNK0	-0.346	
8	   C	134.873	135.401	143.207	C.3	1	UNK0	0.672	
9	   C	133.990	133.246	142.472	C.3	1	UNK0	0.151	
10	   C	134.920	132.476	143.391	C.3	1	UNK0	0.180	
11	   C	135.025	132.224	145.676	C.3	1	UNK0	0.670	
12	   C	136.082	133.296	143.928	C.3	1	UNK0	0.217	
13	   C	137.353	135.252	143.807	C.3	1	UNK0	0.150	
14	   C	138.272	134.137	143.254	C.3	1	UNK0	0.093	
15	   C	137.428	132.840	143.337	C.3	1	UNK0	0.209	
16	   C	134.598	133.276	141.069	C.2	1	UNK0	0.208	
17	   C	133.578	134.948	139.640	C.2	1	UNK0	0.358	
18	   O	133.587	133.687	140.112	O.2	1	UNK0	-0.302	
19	   O	133.142	135.850	140.327	O.co2	1	UNK0	-0.239	
20	   O	138.059	131.890	144.198	O.2	1	UNK0	-0.362	
21	   O	137.236	132.285	142.035	O.2	1	UNK0	-0.362	
22	   H	134.049	137.147	142.781	 H	1	UNK0	0.174	
23	   H	135.646	137.218	143.297	 H	1	UNK0	0.174	
24	   H	134.096	131.057	146.972	 H	1	UNK0	0.174	
25	   H	135.494	131.791	147.546	 H	1	UNK0	0.174	
26	   H	132.870	134.972	143.013	 H	1	UNK0	0.178	
27	   H	133.262	131.758	144.639	 H	1	UNK0	0.178	
28	   H	136.695	133.439	146.022	 H	1	UNK0	0.180	
29	   H	134.401	134.488	137.857	 H	1	UNK0	0.161	
30	   H	134.047	136.117	138.066	 H	1	UNK0	0.161	
31	   H	138.520	131.259	143.627	 H	1	UNK0	0.213	
32	   H	138.096	131.948	141.745	 H	1	UNK0	0.213	
@<TRIPOS>BOND
1 1 8 1
2 1 22 1
3 1 23 1
4 2 9 1
5 2 26 1
6 3 11 1
7 3 27 1
8 4 24 1
9 4 25 1
10 5 28 1
11 6 13 1
12 7 29 1
13 7 30 1
14 2 8 1
15 6 8 1
16 9 10 1
17 9 16 1
18 3 10 1
19 10 12 1
20 4 11 1
21 5 11 1
22 5 12 1
23 6 12 1
24 12 15 1
25 13 14 1
26 14 15 1
27 15 20 2
28 15 21 2
29 16 18 2
30 7 17 1
31 17 19 2
32 17 18 2
33 20 31 1
34 21 32 1
@<TRIPOS>SUBSTRUCTURE
1	UNK0	1	GROUP	1 ****	UNK
