MODEL 1
REMARK VINA RESULT:      -7.6      0.000      0.000
REMARK  5 active torsions:
REMARK  status: ('A' for Active; 'I' for Inactive)
REMARK    1  A    between atoms: C_6  and  C_7 
REMARK    2  A    between atoms: C_7  and  O_8 
REMARK    3  A    between atoms: O_8  and  C_9 
REMARK       I    between atoms: C_9  and  N_10 
REMARK    4  A    between atoms: C_24  and  O_25 
REMARK    5  A    between atoms: C_24  and  O_26 
ROOT
ATOM      1  N           0     134.785 132.125 146.345  0.00  0.00    -0.235 N 
ATOM      2  H           0     135.216 132.092 147.214  0.00  0.00     0.174 HD
ATOM      3  H           0     133.989 131.597 146.179  0.00  0.00     0.174 HD
ATOM      4  C           0     135.273 132.883 145.405  0.00  0.00     0.672 C 
ATOM      5  N           0     136.403 133.659 145.595  0.00  0.00    -0.218 N 
ATOM      6  C           0     137.236 133.965 144.436  0.00  0.00     0.151 C 
ATOM      7  C           0     136.438 134.527 143.275  0.00  0.00     0.180 C 
ATOM      8  N           0     136.114 135.943 143.547  0.00  0.00    -0.216 N 
ATOM      9  C           0     134.830 136.165 143.112  0.00  0.00     0.670 C 
ATOM     10  N           0     134.338 137.344 142.856  0.00  0.00    -0.235 N 
ATOM     11  H           0     134.888 138.135 142.970  0.00  0.00     0.174 HD
ATOM     12  H           0     133.421 137.432 142.552  0.00  0.00     0.174 HD
ATOM     13  C           0     135.080 133.871 143.080  0.00  0.00     0.217 C 
ATOM     14  N           0     134.130 134.992 142.980  0.00  0.00    -0.191 N 
ATOM     15  N           0     134.703 132.960 144.161  0.00  0.00    -0.183 N 
ATOM     16  C           0     133.633 132.114 143.601  0.00  0.00     0.150 C 
ATOM     17  C           0     134.069 131.858 142.140  0.00  0.00     0.093 C 
ATOM     18  C           0     135.028 133.027 141.796  0.00  0.00     0.209 C 
ATOM     19  H           0     136.634 133.993 146.477  0.00  0.00     0.178 HD
ATOM     20  H           0     136.701 136.597 143.958  0.00  0.00     0.178 HD
ATOM     21  H           0     133.173 134.914 142.843  0.00  0.00     0.180 HD
ENDROOT
BRANCH   6  22
ATOM     22  C           0     137.935 132.684 143.979  0.00  0.00     0.208 C 
BRANCH  22  23
ATOM     23  O           0     139.293 132.665 144.492  0.00  0.00    -0.302 OA
BRANCH  23  24
ATOM     24  C           0     139.563 132.055 145.662  0.00  0.00     0.360 C 
ATOM     25  N           0     140.832 131.993 146.113  0.00  0.00    -0.341 N 
ATOM     26  C           0     141.124 131.330 147.385  0.00  0.00     0.151 C 
ATOM     27  H           0     141.550 132.387 145.594  0.00  0.00     0.164 HD
ATOM     28  O           0     138.663 131.562 146.311  0.00  0.00    -0.239 OA
ENDBRANCH  23  24
ENDBRANCH  22  23
ENDBRANCH   6  22
BRANCH  18  29
ATOM     29  O           0     134.506 133.794 140.709  0.00  0.00    -0.362 OA
ATOM     30  H           0     134.070 133.173 140.111  0.00  0.00     0.213 HD
ENDBRANCH  18  29
BRANCH  18  31
ATOM     31  O           0     136.328 132.528 141.476  0.00  0.00    -0.362 OA
ATOM     32  H           0     136.743 132.273 142.311  0.00  0.00     0.213 HD
ENDBRANCH  18  31
TORSDOF 5
ENDMDL
MODEL 2
REMARK VINA RESULT:      -6.7      9.548     12.340
REMARK  5 active torsions:
REMARK  status: ('A' for Active; 'I' for Inactive)
REMARK    1  A    between atoms: C_6  and  C_7 
REMARK    2  A    between atoms: C_7  and  O_8 
REMARK    3  A    between atoms: O_8  and  C_9 
REMARK       I    between atoms: C_9  and  N_10 
REMARK    4  A    between atoms: C_24  and  O_25 
REMARK    5  A    between atoms: C_24  and  O_26 
ROOT
ATOM      1  N           0     128.837 134.236 132.047  0.00  0.00    -0.235 N 
ATOM      2  H           0     128.091 133.846 131.562  0.00  0.00     0.174 HD
ATOM      3  H           0     129.035 135.180 131.953  0.00  0.00     0.174 HD
ATOM      4  C           0     129.567 133.490 132.825  0.00  0.00     0.672 C 
ATOM      5  N           0     129.322 132.138 132.996  0.00  0.00    -0.218 N 
ATOM      6  C           0     130.445 131.266 133.325  0.00  0.00     0.151 C 
ATOM      7  C           0     131.254 131.775 134.503  0.00  0.00     0.180 C 
ATOM      8  N           0     130.525 131.485 135.756  0.00  0.00    -0.216 N 
ATOM      9  C           0     130.680 132.569 136.585  0.00  0.00     0.670 C 
ATOM     10  N           0     130.495 132.536 137.875  0.00  0.00    -0.235 N 
ATOM     11  H           0     130.232 131.708 138.307  0.00  0.00     0.174 HD
ATOM     12  H           0     130.621 133.339 138.405  0.00  0.00     0.174 HD
ATOM     13  C           0     131.435 133.285 134.526  0.00  0.00     0.217 C 
ATOM     14  N           0     131.053 133.691 135.889  0.00  0.00    -0.191 N 
ATOM     15  N           0     130.634 133.991 133.526  0.00  0.00    -0.183 N 
ATOM     16  C           0     131.257 135.321 133.396  0.00  0.00     0.150 C 
ATOM     17  C           0     132.775 135.045 133.495  0.00  0.00     0.093 C 
ATOM     18  C           0     132.891 133.695 134.247  0.00  0.00     0.209 C 
ATOM     19  H           0     128.425 131.780 132.900  0.00  0.00     0.178 HD
ATOM     20  H           0     130.028 130.677 135.956  0.00  0.00     0.178 HD
ATOM     21  H           0     131.065 134.597 136.236  0.00  0.00     0.180 HD
ENDROOT
BRANCH   6  22
ATOM     22  C           0     131.363 131.161 132.107  0.00  0.00     0.208 C 
BRANCH  22  23
ATOM     23  O           0     132.285 130.055 132.290  0.00  0.00    -0.302 OA
BRANCH  23  24
ATOM     24  C           0     131.847 128.786 132.177  0.00  0.00     0.360 C 
ATOM     25  N           0     131.874 127.966 133.246  0.00  0.00    -0.341 N 
ATOM     26  C           0     131.398 126.587 133.122  0.00  0.00     0.151 C 
ATOM     27  H           0     132.209 128.289 134.096  0.00  0.00     0.164 HD
ATOM     28  O           0     131.428 128.382 131.111  0.00  0.00    -0.239 OA
ENDBRANCH  23  24
ENDBRANCH  22  23
ENDBRANCH   6  22
BRANCH  18  29
ATOM     29  O           0     133.608 133.866 135.471  0.00  0.00    -0.362 OA
ATOM     30  H           0     133.370 134.738 135.815  0.00  0.00     0.213 HD
ENDBRANCH  18  29
BRANCH  18  31
ATOM     31  O           0     133.532 132.719 133.425  0.00  0.00    -0.362 OA
ATOM     32  H           0     132.970 131.932 133.433  0.00  0.00     0.213 HD
ENDBRANCH  18  31
TORSDOF 5
ENDMDL
MODEL 3
REMARK VINA RESULT:      -6.6      2.924      5.727
REMARK  5 active torsions:
REMARK  status: ('A' for Active; 'I' for Inactive)
REMARK    1  A    between atoms: C_6  and  C_7 
REMARK    2  A    between atoms: C_7  and  O_8 
REMARK    3  A    between atoms: O_8  and  C_9 
REMARK       I    between atoms: C_9  and  N_10 
REMARK    4  A    between atoms: C_24  and  O_25 
REMARK    5  A    between atoms: C_24  and  O_26 
ROOT
ATOM      1  N           0     139.080 130.420 146.264  0.00  0.00    -0.235 N 
ATOM      2  H           0     139.728 130.440 145.542  0.00  0.00     0.174 HD
ATOM      3  H           0     139.188 129.792 146.995  0.00  0.00     0.174 HD
ATOM      4  C           0     138.067 131.239 146.252  0.00  0.00     0.672 C 
ATOM      5  N           0     137.871 132.156 145.234  0.00  0.00    -0.218 N 
ATOM      6  C           0     136.506 132.572 144.930  0.00  0.00     0.151 C 
ATOM      7  C           0     135.747 133.030 146.161  0.00  0.00     0.180 C 
ATOM      8  N           0     136.192 134.390 146.530  0.00  0.00    -0.216 N 
ATOM      9  C           0     136.268 134.444 147.900  0.00  0.00     0.670 C 
ATOM     10  N           0     136.272 135.549 148.590  0.00  0.00    -0.235 N 
ATOM     11  H           0     136.218 136.405 148.136  0.00  0.00     0.174 HD
ATOM     12  H           0     136.328 135.518 149.558  0.00  0.00     0.174 HD
ATOM     13  C           0     136.028 132.203 147.406  0.00  0.00     0.217 C 
ATOM     14  N           0     136.340 133.190 148.453  0.00  0.00    -0.191 N 
ATOM     15  N           0     137.122 131.246 147.245  0.00  0.00    -0.183 N 
ATOM     16  C           0     136.949 130.269 148.336  0.00  0.00     0.150 C 
ATOM     17  C           0     135.418 130.079 148.442  0.00  0.00     0.093 C 
ATOM     18  C           0     134.809 131.364 147.826  0.00  0.00     0.209 C 
ATOM     19  H           0     138.624 132.513 144.735  0.00  0.00     0.178 HD
ATOM     20  H           0     136.394 135.114 145.915  0.00  0.00     0.178 HD
ATOM     21  H           0     136.558 132.988 149.377  0.00  0.00     0.180 HD
ENDROOT
BRANCH   6  22
ATOM     22  C           0     135.759 131.396 144.300  0.00  0.00     0.208 C 
BRANCH  22  23
ATOM     23  O           0     134.998 131.863 143.155  0.00  0.00    -0.302 OA
BRANCH  23  24
ATOM     24  C           0     133.685 131.579 143.057  0.00  0.00     0.360 C 
ATOM     25  N           0     132.902 131.621 144.153  0.00  0.00    -0.341 N 
ATOM     26  C           0     131.475 131.311 144.046  0.00  0.00     0.151 C 
ATOM     27  H           0     133.285 131.856 145.013  0.00  0.00     0.164 HD
ATOM     28  O           0     133.207 131.284 141.980  0.00  0.00    -0.239 OA
ENDBRANCH  23  24
ENDBRANCH  22  23
ENDBRANCH   6  22
BRANCH  18  29
ATOM     29  O           0     134.029 132.062 148.800  0.00  0.00    -0.362 OA
ATOM     30  H           0     134.509 132.873 149.014  0.00  0.00     0.213 HD
ENDBRANCH  18  29
BRANCH  18  31
ATOM     31  O           0     134.011 131.041 146.686  0.00  0.00    -0.362 OA
ATOM     32  H           0     134.055 131.800 146.089  0.00  0.00     0.213 HD
ENDBRANCH  18  31
TORSDOF 5
ENDMDL
MODEL 4
REMARK VINA RESULT:      -6.6      8.470     11.665
REMARK  5 active torsions:
REMARK  status: ('A' for Active; 'I' for Inactive)
REMARK    1  A    between atoms: C_6  and  C_7 
REMARK    2  A    between atoms: C_7  and  O_8 
REMARK    3  A    between atoms: O_8  and  C_9 
REMARK       I    between atoms: C_9  and  N_10 
REMARK    4  A    between atoms: C_24  and  O_25 
REMARK    5  A    between atoms: C_24  and  O_26 
ROOT
ATOM      1  N           0     132.141 137.310 132.463  0.00  0.00    -0.235 N 
ATOM      2  H           0     131.339 137.841 132.331  0.00  0.00     0.174 HD
ATOM      3  H           0     132.914 137.451 131.896  0.00  0.00     0.174 HD
ATOM      4  C           0     132.179 136.413 133.408  0.00  0.00     0.672 C 
ATOM      5  N           0     131.103 136.178 134.246  0.00  0.00    -0.218 N 
ATOM      6  C           0     130.946 134.843 134.814  0.00  0.00     0.151 C 
ATOM      7  C           0     132.213 134.338 135.479  0.00  0.00     0.180 C 
ATOM      8  N           0     132.366 134.994 136.795  0.00  0.00    -0.216 N 
ATOM      9  C           0     133.699 135.281 136.961  0.00  0.00     0.670 C 
ATOM     10  N           0     134.257 135.521 138.114  0.00  0.00    -0.235 N 
ATOM     11  H           0     133.725 135.503 138.925  0.00  0.00     0.174 HD
ATOM     12  H           0     135.206 135.718 138.163  0.00  0.00     0.174 HD
ATOM     13  C           0     133.490 134.701 134.738  0.00  0.00     0.217 C 
ATOM     14  N           0     134.370 135.284 135.764  0.00  0.00    -0.191 N 
ATOM     15  N           0     133.286 135.636 133.631  0.00  0.00    -0.183 N 
ATOM     16  C           0     134.490 135.513 132.790  0.00  0.00     0.150 C 
ATOM     17  C           0     134.825 134.003 132.817  0.00  0.00     0.093 C 
ATOM     18  C           0     134.162 133.468 134.112  0.00  0.00     0.209 C 
ATOM     19  H           0     130.470 136.885 134.452  0.00  0.00     0.178 HD
ATOM     20  H           0     131.655 135.187 137.426  0.00  0.00     0.178 HD
ATOM     21  H           0     135.272 135.612 135.619  0.00  0.00     0.180 HD
ENDROOT
BRANCH   6  22
ATOM     22  C           0     130.557 133.874 133.697  0.00  0.00     0.208 C 
BRANCH  22  23
ATOM     23  O           0     130.481 132.526 134.231  0.00  0.00    -0.302 OA
BRANCH  23  24
ATOM     24  C           0     130.266 131.485 133.404  0.00  0.00     0.360 C 
ATOM     25  N           0     129.652 130.376 133.861  0.00  0.00    -0.341 N 
ATOM     26  C           0     129.420 129.244 132.961  0.00  0.00     0.151 C 
ATOM     27  H           0     129.364 130.327 134.786  0.00  0.00     0.164 HD
ATOM     28  O           0     130.627 131.545 132.245  0.00  0.00    -0.239 OA
ENDBRANCH  23  24
ENDBRANCH  22  23
ENDBRANCH   6  22
BRANCH  18  29
ATOM     29  O           0     135.152 132.932 134.994  0.00  0.00    -0.362 OA
ATOM     30  H           0     135.501 132.135 134.572  0.00  0.00     0.213 HD
ENDBRANCH  18  29
BRANCH  18  31
ATOM     31  O           0     133.185 132.475 133.798  0.00  0.00    -0.362 OA
ATOM     32  H           0     133.666 131.693 133.494  0.00  0.00     0.213 HD
ENDBRANCH  18  31
TORSDOF 5
ENDMDL
MODEL 5
REMARK VINA RESULT:      -6.5      3.171      5.926
REMARK  5 active torsions:
REMARK  status: ('A' for Active; 'I' for Inactive)
REMARK    1  A    between atoms: C_6  and  C_7 
REMARK    2  A    between atoms: C_7  and  O_8 
REMARK    3  A    between atoms: O_8  and  C_9 
REMARK       I    between atoms: C_9  and  N_10 
REMARK    4  A    between atoms: C_24  and  O_25 
REMARK    5  A    between atoms: C_24  and  O_26 
ROOT
ATOM      1  N           0     136.035 134.924 147.803  0.00  0.00    -0.235 N 
ATOM      2  H           0     135.796 135.176 148.709  0.00  0.00     0.174 HD
ATOM      3  H           0     136.135 135.606 147.121  0.00  0.00     0.174 HD
ATOM      4  C           0     136.228 133.671 147.505  0.00  0.00     0.672 C 
ATOM      5  N           0     136.103 132.661 148.444  0.00  0.00    -0.218 N 
ATOM      6  C           0     135.713 131.332 147.984  0.00  0.00     0.151 C 
ATOM      7  C           0     136.569 130.837 146.834  0.00  0.00     0.180 C 
ATOM      8  N           0     137.876 130.386 147.360  0.00  0.00    -0.216 N 
ATOM      9  C           0     138.840 130.786 146.468  0.00  0.00     0.670 C 
ATOM     10  N           0     140.036 130.272 146.404  0.00  0.00    -0.235 N 
ATOM     11  H           0     140.291 129.559 147.011  0.00  0.00     0.174 HD
ATOM     12  H           0     140.672 130.600 145.749  0.00  0.00     0.174 HD
ATOM     13  C           0     136.933 131.912 145.822  0.00  0.00     0.217 C 
ATOM     14  N           0     138.391 131.794 145.652  0.00  0.00    -0.191 N 
ATOM     15  N           0     136.562 133.265 146.239  0.00  0.00    -0.183 N 
ATOM     16  C           0     136.569 134.068 145.003  0.00  0.00     0.150 C 
ATOM     17  C           0     135.985 133.123 143.927  0.00  0.00     0.093 C 
ATOM     18  C           0     136.230 131.693 144.472  0.00  0.00     0.209 C 
ATOM     19  H           0     136.272 132.834 149.384  0.00  0.00     0.178 HD
ATOM     20  H           0     138.024 129.897 148.184  0.00  0.00     0.178 HD
ATOM     21  H           0     138.939 132.335 145.063  0.00  0.00     0.180 HD
ENDROOT
BRANCH   6  22
ATOM     22  C           0     134.254 131.376 147.527  0.00  0.00     0.208 C 
BRANCH  22  23
ATOM     23  O           0     133.792 130.027 147.254  0.00  0.00    -0.302 OA
BRANCH  23  24
ATOM     24  C           0     132.580 129.829 146.700  0.00  0.00     0.360 C 
ATOM     25  N           0     132.231 130.501 145.585  0.00  0.00    -0.341 N 
ATOM     26  C           0     130.914 130.286 144.983  0.00  0.00     0.151 C 
ATOM     27  H           0     132.853 131.128 145.182  0.00  0.00     0.164 HD
ATOM     28  O           0     131.802 129.045 147.205  0.00  0.00    -0.239 OA
ENDBRANCH  23  24
ENDBRANCH  22  23
ENDBRANCH   6  22
BRANCH  18  29
ATOM     29  O           0     137.070 130.957 143.581  0.00  0.00    -0.362 OA
ATOM     30  H           0     136.701 131.066 142.694  0.00  0.00     0.213 HD
ENDBRANCH  18  29
BRANCH  18  31
ATOM     31  O           0     134.988 131.013 144.663  0.00  0.00    -0.362 OA
ATOM     32  H           0     135.002 130.237 144.086  0.00  0.00     0.213 HD
ENDBRANCH  18  31
TORSDOF 5
ENDMDL
MODEL 6
REMARK VINA RESULT:      -6.5      3.159      5.674
REMARK  5 active torsions:
REMARK  status: ('A' for Active; 'I' for Inactive)
REMARK    1  A    between atoms: C_6  and  C_7 
REMARK    2  A    between atoms: C_7  and  O_8 
REMARK    3  A    between atoms: O_8  and  C_9 
REMARK       I    between atoms: C_9  and  N_10 
REMARK    4  A    between atoms: C_24  and  O_25 
REMARK    5  A    between atoms: C_24  and  O_26 
ROOT
ATOM      1  N           0     138.941 130.486 145.852  0.00  0.00    -0.235 N 
ATOM      2  H           0     139.022 129.648 145.369  0.00  0.00     0.174 HD
ATOM      3  H           0     139.673 130.798 146.407  0.00  0.00     0.174 HD
ATOM      4  C           0     137.853 131.195 145.748  0.00  0.00     0.672 C 
ATOM      5  N           0     136.784 130.796 144.965  0.00  0.00    -0.218 N 
ATOM      6  C           0     135.445 131.232 145.346  0.00  0.00     0.151 C 
ATOM      7  C           0     135.361 132.730 145.573  0.00  0.00     0.180 C 
ATOM      8  N           0     135.328 133.419 144.266  0.00  0.00    -0.216 N 
ATOM      9  C           0     136.099 134.550 144.375  0.00  0.00     0.670 C 
ATOM     10  N           0     136.019 135.571 143.569  0.00  0.00    -0.235 N 
ATOM     11  H           0     135.383 135.562 142.836  0.00  0.00     0.174 HD
ATOM     12  H           0     136.594 136.341 143.701  0.00  0.00     0.174 HD
ATOM     13  C           0     136.577 133.322 146.268  0.00  0.00     0.217 C 
ATOM     14  N           0     136.965 134.473 145.437  0.00  0.00    -0.191 N 
ATOM     15  N           0     137.689 132.382 146.414  0.00  0.00    -0.183 N 
ATOM     16  C           0     138.550 132.958 147.463  0.00  0.00     0.150 C 
ATOM     17  C           0     137.559 133.551 148.491  0.00  0.00     0.093 C 
ATOM     18  C           0     136.251 133.793 147.695  0.00  0.00     0.209 C 
ATOM     19  H           0     136.923 130.240 144.181  0.00  0.00     0.178 HD
ATOM     20  H           0     134.849 133.126 143.475  0.00  0.00     0.178 HD
ATOM     21  H           0     137.705 135.075 145.611  0.00  0.00     0.180 HD
ENDROOT
BRANCH   6  22
ATOM     22  C           0     135.040 130.515 146.635  0.00  0.00     0.208 C 
BRANCH  22  23
ATOM     23  O           0     133.689 130.903 146.999  0.00  0.00    -0.302 OA
BRANCH  23  24
ATOM     24  C           0     132.636 130.235 146.490  0.00  0.00     0.360 C 
ATOM     25  N           0     131.925 130.767 145.476  0.00  0.00    -0.341 N 
ATOM     26  C           0     130.780 130.040 144.924  0.00  0.00     0.151 C 
ATOM     27  H           0     132.173 131.632 145.113  0.00  0.00     0.164 HD
ATOM     28  O           0     132.326 129.152 146.946  0.00  0.00    -0.239 OA
ENDBRANCH  23  24
ENDBRANCH  22  23
ENDBRANCH   6  22
BRANCH  18  29
ATOM     29  O           0     135.914 135.182 147.701  0.00  0.00    -0.362 OA
ATOM     30  H           0     135.737 135.423 148.621  0.00  0.00     0.213 HD
ENDBRANCH  18  29
BRANCH  18  31
ATOM     31  O           0     135.183 133.019 148.243  0.00  0.00    -0.362 OA
ATOM     32  H           0     135.268 132.127 147.879  0.00  0.00     0.213 HD
ENDBRANCH  18  31
TORSDOF 5
ENDMDL
MODEL 7
REMARK VINA RESULT:      -6.4      2.025      2.279
REMARK  5 active torsions:
REMARK  status: ('A' for Active; 'I' for Inactive)
REMARK    1  A    between atoms: C_6  and  C_7 
REMARK    2  A    between atoms: C_7  and  O_8 
REMARK    3  A    between atoms: O_8  and  C_9 
REMARK       I    between atoms: C_9  and  N_10 
REMARK    4  A    between atoms: C_24  and  O_25 
REMARK    5  A    between atoms: C_24  and  O_26 
ROOT
ATOM      1  N           0     134.581 131.955 147.742  0.00  0.00    -0.235 N 
ATOM      2  H           0     134.846 132.092 148.665  0.00  0.00     0.174 HD
ATOM      3  H           0     133.781 131.446 147.537  0.00  0.00     0.174 HD
ATOM      4  C           0     135.297 132.459 146.778  0.00  0.00     0.672 C 
ATOM      5  N           0     136.444 133.196 147.018  0.00  0.00    -0.218 N 
ATOM      6  C           0     137.495 133.193 146.005  0.00  0.00     0.151 C 
ATOM      7  C           0     136.973 133.526 144.620  0.00  0.00     0.180 C 
ATOM      8  N           0     136.740 134.983 144.525  0.00  0.00    -0.216 N 
ATOM      9  C           0     135.581 135.171 143.813  0.00  0.00     0.670 C 
ATOM     10  N           0     135.255 136.289 143.228  0.00  0.00    -0.235 N 
ATOM     11  H           0     135.847 137.055 143.280  0.00  0.00     0.174 HD
ATOM     12  H           0     134.419 136.356 142.740  0.00  0.00     0.174 HD
ATOM     13  C           0     135.615 132.917 144.306  0.00  0.00     0.217 C 
ATOM     14  N           0     134.808 134.037 143.794  0.00  0.00    -0.191 N 
ATOM     15  N           0     134.968 132.289 145.458  0.00  0.00    -0.183 N 
ATOM     16  C           0     133.940 131.399 144.889  0.00  0.00     0.150 C 
ATOM     17  C           0     134.603 130.803 143.626  0.00  0.00     0.093 C 
ATOM     18  C           0     135.713 131.813 143.239  0.00  0.00     0.209 C 
ATOM     19  H           0     136.545 133.704 147.839  0.00  0.00     0.178 HD
ATOM     20  H           0     137.304 135.679 144.898  0.00  0.00     0.178 HD
ATOM     21  H           0     133.887 133.982 143.493  0.00  0.00     0.180 HD
ENDROOT
BRANCH   6  22
ATOM     22  C           0     138.140 131.807 145.968  0.00  0.00     0.208 C 
BRANCH  22  23
ATOM     23  O           0     138.838 131.565 147.218  0.00  0.00    -0.302 OA
BRANCH  23  24
ATOM     24  C           0     138.404 130.604 148.056  0.00  0.00     0.360 C 
ATOM     25  N           0     138.386 129.317 147.656  0.00  0.00    -0.341 N 
ATOM     26  C           0     137.914 128.273 148.568  0.00  0.00     0.151 C 
ATOM     27  H           0     138.686 129.083 146.763  0.00  0.00     0.164 HD
ATOM     28  O           0     138.029 130.897 149.174  0.00  0.00    -0.239 OA
ENDBRANCH  23  24
ENDBRANCH  22  23
ENDBRANCH   6  22
BRANCH  18  29
ATOM     29  O           0     135.468 132.348 141.937  0.00  0.00    -0.362 OA
ATOM     30  H           0     134.524 132.554 141.892  0.00  0.00     0.213 HD
ENDBRANCH  18  29
BRANCH  18  31
ATOM     31  O           0     136.996 131.187 143.288  0.00  0.00    -0.362 OA
ATOM     32  H           0     137.594 131.808 143.727  0.00  0.00     0.213 HD
ENDBRANCH  18  31
TORSDOF 5
ENDMDL
MODEL 8
REMARK VINA RESULT:      -6.4      1.939      5.822
REMARK  5 active torsions:
REMARK  status: ('A' for Active; 'I' for Inactive)
REMARK    1  A    between atoms: C_6  and  C_7 
REMARK    2  A    between atoms: C_7  and  O_8 
REMARK    3  A    between atoms: O_8  and  C_9 
REMARK       I    between atoms: C_9  and  N_10 
REMARK    4  A    between atoms: C_24  and  O_25 
REMARK    5  A    between atoms: C_24  and  O_26 
ROOT
ATOM      1  N           0     135.100 136.081 142.807  0.00  0.00    -0.235 N 
ATOM      2  H           0     134.261 136.475 142.516  0.00  0.00     0.174 HD
ATOM      3  H           0     135.933 136.554 142.661  0.00  0.00     0.174 HD
ATOM      4  C           0     135.103 134.920 143.397  0.00  0.00     0.672 C 
ATOM      5  N           0     133.940 134.208 143.632  0.00  0.00    -0.218 N 
ATOM      6  C           0     134.019 132.752 143.694  0.00  0.00     0.151 C 
ATOM      7  C           0     135.098 132.265 144.642  0.00  0.00     0.180 C 
ATOM      8  N           0     134.621 132.403 146.035  0.00  0.00    -0.216 N 
ATOM      9  C           0     135.680 132.835 146.794  0.00  0.00     0.670 C 
ATOM     10  N           0     135.744 132.724 148.092  0.00  0.00    -0.235 N 
ATOM     11  H           0     135.013 132.315 148.580  0.00  0.00     0.174 HD
ATOM     12  H           0     136.522 133.050 148.569  0.00  0.00     0.174 HD
ATOM     13  C           0     136.373 133.093 144.609  0.00  0.00     0.217 C 
ATOM     14  N           0     136.664 133.397 146.020  0.00  0.00    -0.191 N 
ATOM     15  N           0     136.261 134.320 143.821  0.00  0.00    -0.183 N 
ATOM     16  C           0     137.648 134.728 143.535  0.00  0.00     0.150 C 
ATOM     17  C           0     138.394 133.399 143.275  0.00  0.00     0.093 C 
ATOM     18  C           0     137.547 132.315 143.990  0.00  0.00     0.209 C 
ATOM     19  H           0     133.093 134.666 143.754  0.00  0.00     0.178 HD
ATOM     20  H           0     133.723 132.222 146.353  0.00  0.00     0.178 HD
ATOM     21  H           0     137.422 133.907 146.346  0.00  0.00     0.180 HD
ENDROOT
BRANCH   6  22
ATOM     22  C           0     134.315 132.213 142.294  0.00  0.00     0.208 C 
BRANCH  22  23
ATOM     23  O           0     133.081 132.144 141.531  0.00  0.00    -0.302 OA
BRANCH  23  24
ATOM     24  C           0     132.698 133.189 140.773  0.00  0.00     0.360 C 
ATOM     25  N           0     133.623 134.022 140.256  0.00  0.00    -0.341 N 
ATOM     26  C           0     133.206 135.158 139.432  0.00  0.00     0.151 C 
ATOM     27  H           0     134.565 133.869 140.431  0.00  0.00     0.164 HD
ATOM     28  O           0     131.519 133.380 140.554  0.00  0.00    -0.239 OA
ENDBRANCH  23  24
ENDBRANCH  22  23
ENDBRANCH   6  22
BRANCH  18  29
ATOM     29  O           0     138.318 131.673 145.008  0.00  0.00    -0.362 OA
ATOM     30  H           0     138.848 132.360 145.434  0.00  0.00     0.213 HD
ENDBRANCH  18  29
BRANCH  18  31
ATOM     31  O           0     137.066 131.356 143.048  0.00  0.00    -0.362 OA
ATOM     32  H           0     137.055 130.501 143.499  0.00  0.00     0.213 HD
ENDBRANCH  18  31
TORSDOF 5
ENDMDL
MODEL 9
REMARK VINA RESULT:      -6.4      2.896      6.397
REMARK  5 active torsions:
REMARK  status: ('A' for Active; 'I' for Inactive)
REMARK    1  A    between atoms: C_6  and  C_7 
REMARK    2  A    between atoms: C_7  and  O_8 
REMARK    3  A    between atoms: O_8  and  C_9 
REMARK       I    between atoms: C_9  and  N_10 
REMARK    4  A    between atoms: C_24  and  O_25 
REMARK    5  A    between atoms: C_24  and  O_26 
ROOT
ATOM      1  N           0     133.285 131.858 149.278  0.00  0.00    -0.235 N 
ATOM      2  H           0     132.409 131.471 149.437  0.00  0.00     0.174 HD
ATOM      3  H           0     133.569 132.637 149.781  0.00  0.00     0.174 HD
ATOM      4  C           0     134.081 131.326 148.395  0.00  0.00     0.672 C 
ATOM      5  N           0     133.724 130.211 147.656  0.00  0.00    -0.218 N 
ATOM      6  C           0     134.310 130.043 146.330  0.00  0.00     0.151 C 
ATOM      7  C           0     135.821 130.169 146.338  0.00  0.00     0.180 C 
ATOM      8  N           0     136.411 128.923 146.871  0.00  0.00    -0.216 N 
ATOM      9  C           0     137.471 129.275 147.670  0.00  0.00     0.670 C 
ATOM     10  N           0     138.431 128.463 148.011  0.00  0.00    -0.235 N 
ATOM     11  H           0     138.426 127.546 147.697  0.00  0.00     0.174 HD
ATOM     12  H           0     139.153 128.776 148.579  0.00  0.00     0.174 HD
ATOM     13  C           0     136.349 131.251 147.267  0.00  0.00     0.217 C 
ATOM     14  N           0     137.395 130.588 148.064  0.00  0.00    -0.191 N 
ATOM     15  N           0     135.325 131.838 148.131  0.00  0.00    -0.183 N 
ATOM     16  C           0     135.897 133.114 148.600  0.00  0.00     0.150 C 
ATOM     17  C           0     136.654 133.670 147.371  0.00  0.00     0.093 C 
ATOM     18  C           0     136.955 132.431 146.490  0.00  0.00     0.209 C 
ATOM     19  H           0     133.101 129.558 148.012  0.00  0.00     0.178 HD
ATOM     20  H           0     136.104 128.020 146.690  0.00  0.00     0.178 HD
ATOM     21  H           0     137.937 131.007 148.750  0.00  0.00     0.180 HD
ENDROOT
BRANCH   6  22
ATOM     22  C           0     133.732 131.108 145.396  0.00  0.00     0.208 C 
BRANCH  22  23
ATOM     23  O           0     134.168 130.846 144.036  0.00  0.00    -0.302 OA
BRANCH  23  24
ATOM     24  C           0     133.834 131.696 143.046  0.00  0.00     0.360 C 
ATOM     25  N           0     134.152 133.002 143.142  0.00  0.00    -0.341 N 
ATOM     26  C           0     133.788 133.925 142.066  0.00  0.00     0.151 C 
ATOM     27  H           0     134.622 133.329 143.925  0.00  0.00     0.164 HD
ATOM     28  O           0     133.245 131.285 142.066  0.00  0.00    -0.239 OA
ENDBRANCH  23  24
ENDBRANCH  22  23
ENDBRANCH   6  22
BRANCH  18  29
ATOM     29  O           0     138.365 132.261 146.335  0.00  0.00    -0.362 OA
ATOM     30  H           0     138.549 132.297 145.386  0.00  0.00     0.213 HD
ENDBRANCH  18  29
BRANCH  18  31
ATOM     31  O           0     136.325 132.562 145.214  0.00  0.00    -0.362 OA
ATOM     32  H           0     136.371 131.695 144.789  0.00  0.00     0.213 HD
ENDBRANCH  18  31
TORSDOF 5
ENDMDL
