# created with PyMOL 2.3.4
@<TRIPOS>MOLECULE
ligand_out_0001
32 34 1                 
SMALL
USER_CHARGES
@<TRIPOS>ATOM
1	   N	134.785	132.125	146.345	N.3	1	UNK0	-0.235	
2	   N	136.403	133.659	145.595	N.3	1	UNK0	-0.218	
3	   N	136.114	135.943	143.547	N.3	1	UNK0	-0.216	
4	   N	134.338	137.344	142.856	N.3	1	UNK0	-0.235	
5	   N	134.130	134.992	142.980	N.3	1	UNK0	-0.191	
6	   N	134.703	132.960	144.161	N.3	1	UNK0	-0.183	
7	   N	140.832	131.993	146.113	N.pl3	1	UNK0	-0.341	
8	   C	135.273	132.883	145.405	C.3	1	UNK0	0.672	
9	   C	137.236	133.965	144.436	C.3	1	UNK0	0.151	
10	   C	136.438	134.527	143.275	C.3	1	UNK0	0.180	
11	   C	134.830	136.165	143.112	C.3	1	UNK0	0.670	
12	   C	135.080	133.871	143.080	C.3	1	UNK0	0.217	
13	   C	133.633	132.114	143.601	C.3	1	UNK0	0.150	
14	   C	134.069	131.858	142.140	C.3	1	UNK0	0.093	
15	   C	135.028	133.027	141.796	C.3	1	UNK0	0.209	
16	   C	137.935	132.684	143.979	C.2	1	UNK0	0.208	
17	   C	139.563	132.055	145.662	C.2	1	UNK0	0.360	
18	   C	141.124	131.330	147.385	C.3	1	UNK0	0.151	
19	   O	139.293	132.665	144.492	O.2	1	UNK0	-0.302	
20	   O	138.663	131.562	146.311	O.co2	1	UNK0	-0.239	
21	   O	134.506	133.794	140.709	O.2	1	UNK0	-0.362	
22	   O	136.328	132.528	141.476	O.2	1	UNK0	-0.362	
23	   H	135.216	132.092	147.214	 H	1	UNK0	0.174	
24	   H	133.989	131.597	146.179	 H	1	UNK0	0.174	
25	   H	134.888	138.135	142.970	 H	1	UNK0	0.174	
26	   H	133.421	137.432	142.552	 H	1	UNK0	0.174	
27	   H	136.634	133.993	146.477	 H	1	UNK0	0.178	
28	   H	136.701	136.597	143.958	 H	1	UNK0	0.178	
29	   H	133.173	134.914	142.843	 H	1	UNK0	0.180	
30	   H	141.550	132.387	145.594	 H	1	UNK0	0.164	
31	   H	134.070	133.173	140.111	 H	1	UNK0	0.213	
32	   H	136.743	132.273	142.311	 H	1	UNK0	0.213	
@<TRIPOS>BOND
1 1 8 1
2 1 23 1
3 1 24 1
4 2 9 1
5 2 27 1
6 3 11 1
7 3 28 1
8 4 25 1
9 4 26 1
10 5 29 1
11 6 13 1
12 7 18 1
13 7 30 1
14 2 8 1
15 6 8 1
16 9 10 1
17 9 16 1
18 3 10 1
19 10 12 1
20 4 11 1
21 5 11 1
22 5 12 1
23 6 12 1
24 12 15 1
25 13 14 1
26 14 15 1
27 15 21 2
28 15 22 2
29 16 19 2
30 7 17 1
31 17 20 2
32 17 19 2
33 21 31 1
34 22 32 1
@<TRIPOS>SUBSTRUCTURE
1	UNK0	1	GROUP	1 ****	UNK
