MODEL 1
REMARK VINA RESULT:      -7.5      0.000      0.000
REMARK  5 active torsions:
REMARK  status: ('A' for Active; 'I' for Inactive)
REMARK    1  A    between atoms: C_6  and  C_7 
REMARK    2  A    between atoms: C_7  and  O_8 
REMARK    3  A    between atoms: O_8  and  C_9 
REMARK       I    between atoms: C_9  and  N_10 
REMARK    4  A    between atoms: C_24  and  O_25 
REMARK    5  A    between atoms: C_24  and  O_26 
ROOT
ATOM      1  N           0     134.949 132.124 146.688  0.00  0.00    -0.235 N 
ATOM      2  H           0     135.204 132.239 147.617  0.00  0.00     0.174 HD
ATOM      3  H           0     134.295 131.450 146.445  0.00  0.00     0.174 HD
ATOM      4  C           0     135.481 132.878 145.769  0.00  0.00     0.672 C 
ATOM      5  N           0     136.414 133.857 146.065  0.00  0.00    -0.218 N 
ATOM      6  C           0     137.394 134.211 145.044  0.00  0.00     0.151 C 
ATOM      7  C           0     136.756 134.525 143.705  0.00  0.00     0.180 C 
ATOM      8  N           0     136.163 135.879 143.754  0.00  0.00    -0.216 N 
ATOM      9  C           0     134.968 135.831 143.078  0.00  0.00     0.670 C 
ATOM     10  N           0     134.352 136.879 142.608  0.00  0.00    -0.235 N 
ATOM     11  H           0     134.735 137.762 142.727  0.00  0.00     0.174 HD
ATOM     12  H           0     133.509 136.777 142.139  0.00  0.00     0.174 HD
ATOM     13  C           0     135.584 133.625 143.349  0.00  0.00     0.217 C 
ATOM     14  N           0     134.504 134.546 142.958  0.00  0.00    -0.191 N 
ATOM     15  N           0     135.157 132.751 144.443  0.00  0.00    -0.183 N 
ATOM     16  C           0     134.364 131.685 143.803  0.00  0.00     0.150 C 
ATOM     17  C           0     135.110 131.394 142.479  0.00  0.00     0.093 C 
ATOM     18  C           0     135.916 132.683 142.180  0.00  0.00     0.209 C 
ATOM     19  H           0     136.414 134.296 146.931  0.00  0.00     0.178 HD
ATOM     20  H           0     136.547 136.658 144.186  0.00  0.00     0.178 HD
ATOM     21  H           0     133.616 134.287 142.664  0.00  0.00     0.180 HD
ENDROOT
BRANCH   6  22
ATOM     22  C           0     138.365 133.043 144.865  0.00  0.00     0.208 C 
BRANCH  22  23
ATOM     23  O           0     139.009 132.749 146.133  0.00  0.00    -0.302 OA
BRANCH  23  24
ATOM     24  C           0     140.057 131.905 146.177  0.00  0.00     0.360 C 
ATOM     25  N           0     139.921 130.691 146.747  0.00  0.00    -0.341 N 
ATOM     26  C           0     141.062 129.774 146.795  0.00  0.00     0.151 C 
ATOM     27  H           0     139.069 130.426 147.125  0.00  0.00     0.164 HD
ATOM     28  O           0     141.125 132.238 145.704  0.00  0.00    -0.239 OA
ENDBRANCH  23  24
ENDBRANCH  22  23
ENDBRANCH   6  22
BRANCH  18  29
ATOM     29  O           0     135.498 133.255 140.938  0.00  0.00    -0.362 OA
ATOM     30  H           0     136.281 133.654 140.536  0.00  0.00     0.213 HD
ENDBRANCH  18  29
BRANCH  18  31
ATOM     31  O           0     137.316 132.400 142.152  0.00  0.00    -0.362 OA
ATOM     32  H           0     137.439 131.551 142.599  0.00  0.00     0.213 HD
ENDBRANCH  18  31
TORSDOF 5
ENDMDL
MODEL 2
REMARK VINA RESULT:      -7.4      2.415      6.289
REMARK  5 active torsions:
REMARK  status: ('A' for Active; 'I' for Inactive)
REMARK    1  A    between atoms: C_6  and  C_7 
REMARK    2  A    between atoms: C_7  and  O_8 
REMARK    3  A    between atoms: O_8  and  C_9 
REMARK       I    between atoms: C_9  and  N_10 
REMARK    4  A    between atoms: C_24  and  O_25 
REMARK    5  A    between atoms: C_24  and  O_26 
ROOT
ATOM      1  N           0     135.174 136.853 143.225  0.00  0.00    -0.235 N 
ATOM      2  H           0     134.415 137.430 143.040  0.00  0.00     0.174 HD
ATOM      3  H           0     136.054 137.237 143.356  0.00  0.00     0.174 HD
ATOM      4  C           0     135.006 135.563 143.304  0.00  0.00     0.672 C 
ATOM      5  N           0     133.769 134.968 143.130  0.00  0.00    -0.218 N 
ATOM      6  C           0     133.723 133.603 142.616  0.00  0.00     0.151 C 
ATOM      7  C           0     134.624 132.657 143.387  0.00  0.00     0.180 C 
ATOM      8  N           0     133.978 132.307 144.670  0.00  0.00    -0.216 N 
ATOM      9  C           0     134.958 132.277 145.632  0.00  0.00     0.670 C 
ATOM     10  N           0     134.839 131.669 146.779  0.00  0.00    -0.235 N 
ATOM     11  H           0     134.019 131.198 146.996  0.00  0.00     0.174 HD
ATOM     12  H           0     135.571 131.686 147.415  0.00  0.00     0.174 HD
ATOM     13  C           0     135.955 133.267 143.802  0.00  0.00     0.217 C 
ATOM     14  N           0     136.078 132.966 145.238  0.00  0.00    -0.191 N 
ATOM     15  N           0     136.046 134.707 143.558  0.00  0.00    -0.183 N 
ATOM     16  C           0     137.487 135.016 143.586  0.00  0.00     0.150 C 
ATOM     17  C           0     138.153 133.807 142.889  0.00  0.00     0.093 C 
ATOM     18  C           0     137.135 132.647 143.035  0.00  0.00     0.209 C 
ATOM     19  H           0     132.952 135.446 143.346  0.00  0.00     0.178 HD
ATOM     20  H           0     133.034 132.132 144.807  0.00  0.00     0.178 HD
ATOM     21  H           0     136.823 133.212 145.807  0.00  0.00     0.180 HD
ENDROOT
BRANCH   6  22
ATOM     22  C           0     134.160 133.612 141.150  0.00  0.00     0.208 C 
BRANCH  22  23
ATOM     23  O           0     133.439 134.652 140.438  0.00  0.00    -0.302 OA
BRANCH  23  24
ATOM     24  C           0     133.426 134.661 139.091  0.00  0.00     0.360 C 
ATOM     25  N           0     134.371 135.342 138.412  0.00  0.00    -0.341 N 
ATOM     26  C           0     134.356 135.353 136.948  0.00  0.00     0.151 C 
ATOM     27  H           0     135.060 135.826 138.894  0.00  0.00     0.164 HD
ATOM     28  O           0     132.563 134.055 138.487  0.00  0.00    -0.239 OA
ENDBRANCH  23  24
ENDBRANCH  22  23
ENDBRANCH   6  22
BRANCH  18  29
ATOM     29  O           0     137.709 131.571 143.780  0.00  0.00    -0.362 OA
ATOM     30  H           0     138.313 131.108 143.183  0.00  0.00     0.213 HD
ENDBRANCH  18  29
BRANCH  18  31
ATOM     31  O           0     136.709 132.193 141.749  0.00  0.00    -0.362 OA
ATOM     32  H           0     136.428 132.974 141.255  0.00  0.00     0.213 HD
ENDBRANCH  18  31
TORSDOF 5
ENDMDL
MODEL 3
REMARK VINA RESULT:      -7.1      2.557      5.379
REMARK  5 active torsions:
REMARK  status: ('A' for Active; 'I' for Inactive)
REMARK    1  A    between atoms: C_6  and  C_7 
REMARK    2  A    between atoms: C_7  and  O_8 
REMARK    3  A    between atoms: O_8  and  C_9 
REMARK       I    between atoms: C_9  and  N_10 
REMARK    4  A    between atoms: C_24  and  O_25 
REMARK    5  A    between atoms: C_24  and  O_26 
ROOT
ATOM      1  N           0     139.688 130.549 146.223  0.00  0.00    -0.235 N 
ATOM      2  H           0     140.475 130.690 145.671  0.00  0.00     0.174 HD
ATOM      3  H           0     139.675 129.831 146.874  0.00  0.00     0.174 HD
ATOM      4  C           0     138.653 131.330 146.090  0.00  0.00     0.672 C 
ATOM      5  N           0     138.626 132.371 145.179  0.00  0.00    -0.218 N 
ATOM      6  C           0     137.335 132.781 144.635  0.00  0.00     0.151 C 
ATOM      7  C           0     136.301 133.040 145.715  0.00  0.00     0.180 C 
ATOM      8  N           0     136.571 134.350 146.343  0.00  0.00    -0.216 N 
ATOM      9  C           0     136.346 134.217 147.692  0.00  0.00     0.670 C 
ATOM     10  N           0     136.133 135.216 148.500  0.00  0.00    -0.235 N 
ATOM     11  H           0     136.125 136.124 148.158  0.00  0.00     0.174 HD
ATOM     12  H           0     135.980 135.054 149.444  0.00  0.00     0.174 HD
ATOM     13  C           0     136.357 132.059 146.876  0.00  0.00     0.217 C 
ATOM     14  N           0     136.375 132.902 148.083  0.00  0.00    -0.191 N 
ATOM     15  N           0     137.518 131.169 146.841  0.00  0.00    -0.183 N 
ATOM     16  C           0     137.174 130.046 147.733  0.00  0.00     0.150 C 
ATOM     17  C           0     135.671 129.793 147.471  0.00  0.00     0.093 C 
ATOM     18  C           0     135.131 131.131 146.904  0.00  0.00     0.209 C 
ATOM     19  H           0     139.444 132.818 144.910  0.00  0.00     0.178 HD
ATOM     20  H           0     136.856 135.157 145.886  0.00  0.00     0.178 HD
ATOM     21  H           0     136.400 132.582 148.998  0.00  0.00     0.180 HD
ENDROOT
BRANCH   6  22
ATOM     22  C           0     136.816 131.679 143.711  0.00  0.00     0.208 C 
BRANCH  22  23
ATOM     23  O           0     136.461 132.254 142.425  0.00  0.00    -0.302 OA
BRANCH  23  24
ATOM     24  C           0     135.181 132.583 142.165  0.00  0.00     0.360 C 
ATOM     25  N           0     134.902 133.534 141.251  0.00  0.00    -0.341 N 
ATOM     26  C           0     133.510 133.891 140.969  0.00  0.00     0.151 C 
ATOM     27  H           0     135.623 133.981 140.782  0.00  0.00     0.164 HD
ATOM     28  O           0     134.278 132.022 142.753  0.00  0.00    -0.239 OA
ENDBRANCH  23  24
ENDBRANCH  22  23
ENDBRANCH   6  22
BRANCH  18  29
ATOM     29  O           0     134.118 131.662 147.761  0.00  0.00    -0.362 OA
ATOM     30  H           0     133.389 131.026 147.760  0.00  0.00     0.213 HD
ENDBRANCH  18  29
BRANCH  18  31
ATOM     31  O           0     134.620 130.943 145.584  0.00  0.00    -0.362 OA
ATOM     32  H           0     134.405 131.820 145.238  0.00  0.00     0.213 HD
ENDBRANCH  18  31
TORSDOF 5
ENDMDL
MODEL 4
REMARK VINA RESULT:      -7.0      1.767      2.209
REMARK  5 active torsions:
REMARK  status: ('A' for Active; 'I' for Inactive)
REMARK    1  A    between atoms: C_6  and  C_7 
REMARK    2  A    between atoms: C_7  and  O_8 
REMARK    3  A    between atoms: O_8  and  C_9 
REMARK       I    between atoms: C_9  and  N_10 
REMARK    4  A    between atoms: C_24  and  O_25 
REMARK    5  A    between atoms: C_24  and  O_26 
ROOT
ATOM      1  N           0     136.017 134.638 146.673  0.00  0.00    -0.235 N 
ATOM      2  H           0     136.454 135.471 146.913  0.00  0.00     0.174 HD
ATOM      3  H           0     135.584 134.103 147.356  0.00  0.00     0.174 HD
ATOM      4  C           0     136.009 134.242 145.432  0.00  0.00     0.672 C 
ATOM      5  N           0     136.609 134.971 144.420  0.00  0.00    -0.218 N 
ATOM      6  C           0     137.114 134.253 143.254  0.00  0.00     0.151 C 
ATOM      7  C           0     136.080 133.323 142.648  0.00  0.00     0.180 C 
ATOM      8  N           0     135.108 134.118 141.869  0.00  0.00    -0.216 N 
ATOM      9  C           0     133.863 133.580 142.089  0.00  0.00     0.670 C 
ATOM     10  N           0     132.834 133.775 141.312  0.00  0.00    -0.235 N 
ATOM     11  H           0     132.921 134.329 140.521  0.00  0.00     0.174 HD
ATOM     12  H           0     131.981 133.365 141.525  0.00  0.00     0.174 HD
ATOM     13  C           0     135.222 132.597 143.672  0.00  0.00     0.217 C 
ATOM     14  N           0     133.836 132.812 143.226  0.00  0.00    -0.191 N 
ATOM     15  N           0     135.411 133.071 145.044  0.00  0.00    -0.183 N 
ATOM     16  C           0     134.877 131.999 145.903  0.00  0.00     0.150 C 
ATOM     17  C           0     135.303 130.691 145.196  0.00  0.00     0.093 C 
ATOM     18  C           0     135.530 131.090 143.715  0.00  0.00     0.209 C 
ATOM     19  H           0     136.691 135.936 144.485  0.00  0.00     0.178 HD
ATOM     20  H           0     135.311 134.881 141.305  0.00  0.00     0.178 HD
ATOM     21  H           0     133.040 132.469 143.660  0.00  0.00     0.180 HD
ENDROOT
BRANCH   6  22
ATOM     22  C           0     138.333 133.430 143.671  0.00  0.00     0.208 C 
BRANCH  22  23
ATOM     23  O           0     138.310 133.224 145.108  0.00  0.00    -0.302 OA
BRANCH  23  24
ATOM     24  C           0     139.042 132.237 145.659  0.00  0.00     0.360 C 
ATOM     25  N           0     140.257 132.507 146.176  0.00  0.00    -0.341 N 
ATOM     26  C           0     141.053 131.433 146.775  0.00  0.00     0.151 C 
ATOM     27  H           0     140.604 133.412 146.152  0.00  0.00     0.164 HD
ATOM     28  O           0     138.607 131.103 145.689  0.00  0.00    -0.239 OA
ENDBRANCH  23  24
ENDBRANCH  22  23
ENDBRANCH   6  22
BRANCH  18  29
ATOM     29  O           0     134.636 130.370 142.863  0.00  0.00    -0.362 OA
ATOM     30  H           0     135.109 130.205 142.036  0.00  0.00     0.213 HD
ENDBRANCH  18  29
BRANCH  18  31
ATOM     31  O           0     136.885 130.848 143.335  0.00  0.00    -0.362 OA
ATOM     32  H           0     136.869 130.548 142.416  0.00  0.00     0.213 HD
ENDBRANCH  18  31
TORSDOF 5
ENDMDL
MODEL 5
REMARK VINA RESULT:      -6.8     11.965     14.564
REMARK  5 active torsions:
REMARK  status: ('A' for Active; 'I' for Inactive)
REMARK    1  A    between atoms: C_6  and  C_7 
REMARK    2  A    between atoms: C_7  and  O_8 
REMARK    3  A    between atoms: O_8  and  C_9 
REMARK       I    between atoms: C_9  and  N_10 
REMARK    4  A    between atoms: C_24  and  O_25 
REMARK    5  A    between atoms: C_24  and  O_26 
ROOT
ATOM      1  N           0     130.247 131.545 135.393  0.00  0.00    -0.235 N 
ATOM      2  H           0     129.391 131.888 135.697  0.00  0.00     0.174 HD
ATOM      3  H           0     131.063 131.815 135.842  0.00  0.00     0.174 HD
ATOM      4  C           0     130.297 130.719 134.387  0.00  0.00     0.672 C 
ATOM      5  N           0     129.161 130.301 133.718  0.00  0.00    -0.218 N 
ATOM      6  C           0     129.282 129.930 132.312  0.00  0.00     0.151 C 
ATOM      7  C           0     130.398 128.932 132.064  0.00  0.00     0.180 C 
ATOM      8  N           0     129.952 127.588 132.490  0.00  0.00    -0.216 N 
ATOM      9  C           0     131.019 126.973 133.098  0.00  0.00     0.670 C 
ATOM     10  N           0     131.118 125.685 133.272  0.00  0.00    -0.235 N 
ATOM     11  H           0     130.411 125.097 132.962  0.00  0.00     0.174 HD
ATOM     12  H           0     131.899 125.312 133.710  0.00  0.00     0.174 HD
ATOM     13  C           0     131.649 129.182 132.893  0.00  0.00     0.217 C 
ATOM     14  N           0     131.966 127.880 133.501  0.00  0.00    -0.191 N 
ATOM     15  N           0     131.482 130.213 133.918  0.00  0.00    -0.183 N 
ATOM     16  C           0     132.850 130.622 134.285  0.00  0.00     0.150 C 
ATOM     17  C           0     133.625 130.613 132.947  0.00  0.00     0.093 C 
ATOM     18  C           0     132.827 129.655 132.026  0.00  0.00     0.209 C 
ATOM     19  H           0     128.305 130.254 134.174  0.00  0.00     0.178 HD
ATOM     20  H           0     129.068 127.211 132.362  0.00  0.00     0.178 HD
ATOM     21  H           0     132.718 127.694 134.086  0.00  0.00     0.180 HD
ENDROOT
BRANCH   6  22
ATOM     22  C           0     129.557 131.190 131.490  0.00  0.00     0.208 C 
BRANCH  22  23
ATOM     23  O           0     128.306 131.875 131.222  0.00  0.00    -0.302 OA
BRANCH  23  24
ATOM     24  C           0     128.004 133.010 131.882  0.00  0.00     0.360 C 
ATOM     25  N           0     128.975 133.706 132.505  0.00  0.00    -0.341 N 
ATOM     26  C           0     128.646 134.939 133.223  0.00  0.00     0.151 C 
ATOM     27  H           0     129.892 133.390 132.478  0.00  0.00     0.164 HD
ATOM     28  O           0     126.856 133.406 131.916  0.00  0.00    -0.239 OA
ENDBRANCH  23  24
ENDBRANCH  22  23
ENDBRANCH   6  22
BRANCH  18  29
ATOM     29  O           0     133.641 128.547 131.635  0.00  0.00    -0.362 OA
ATOM     30  H           0     134.531 128.893 131.484  0.00  0.00     0.213 HD
ENDBRANCH  18  29
BRANCH  18  31
ATOM     31  O           0     132.349 130.354 130.875  0.00  0.00    -0.362 OA
ATOM     32  H           0     132.785 129.960 130.107  0.00  0.00     0.213 HD
ENDBRANCH  18  31
TORSDOF 5
ENDMDL
MODEL 6
REMARK VINA RESULT:      -6.8      8.847     12.046
REMARK  5 active torsions:
REMARK  status: ('A' for Active; 'I' for Inactive)
REMARK    1  A    between atoms: C_6  and  C_7 
REMARK    2  A    between atoms: C_7  and  O_8 
REMARK    3  A    between atoms: O_8  and  C_9 
REMARK       I    between atoms: C_9  and  N_10 
REMARK    4  A    between atoms: C_24  and  O_25 
REMARK    5  A    between atoms: C_24  and  O_26 
ROOT
ATOM      1  N           0     132.114 137.335 132.503  0.00  0.00    -0.235 N 
ATOM      2  H           0     131.312 137.869 132.384  0.00  0.00     0.174 HD
ATOM      3  H           0     132.883 137.481 131.930  0.00  0.00     0.174 HD
ATOM      4  C           0     132.159 136.427 133.435  0.00  0.00     0.672 C 
ATOM      5  N           0     131.091 136.184 134.282  0.00  0.00    -0.218 N 
ATOM      6  C           0     130.936 134.842 134.834  0.00  0.00     0.151 C 
ATOM      7  C           0     132.208 134.326 135.481  0.00  0.00     0.180 C 
ATOM      8  N           0     132.376 134.965 136.803  0.00  0.00    -0.216 N 
ATOM      9  C           0     133.711 135.246 136.960  0.00  0.00     0.670 C 
ATOM     10  N           0     134.281 135.471 138.110  0.00  0.00    -0.235 N 
ATOM     11  H           0     133.757 135.444 138.925  0.00  0.00     0.174 HD
ATOM     12  H           0     135.231 135.665 138.152  0.00  0.00     0.174 HD
ATOM     13  C           0     133.479 134.695 134.732  0.00  0.00     0.217 C 
ATOM     14  N           0     134.371 135.263 135.756  0.00  0.00    -0.191 N 
ATOM     15  N           0     133.266 135.644 133.638  0.00  0.00    -0.183 N 
ATOM     16  C           0     134.462 135.528 132.784  0.00  0.00     0.150 C 
ATOM     17  C           0     134.793 134.017 132.790  0.00  0.00     0.093 C 
ATOM     18  C           0     134.141 133.467 134.084  0.00  0.00     0.209 C 
ATOM     19  H           0     130.462 136.890 134.502  0.00  0.00     0.178 HD
ATOM     20  H           0     131.671 135.152 137.443  0.00  0.00     0.178 HD
ATOM     21  H           0     135.271 135.590 135.607  0.00  0.00     0.180 HD
ENDROOT
BRANCH   6  22
ATOM     22  C           0     130.533 133.888 133.709  0.00  0.00     0.208 C 
BRANCH  22  23
ATOM     23  O           0     130.461 132.534 134.227  0.00  0.00    -0.302 OA
BRANCH  23  24
ATOM     24  C           0     130.239 131.503 133.388  0.00  0.00     0.360 C 
ATOM     25  N           0     129.611 130.396 133.832  0.00  0.00    -0.341 N 
ATOM     26  C           0     129.370 129.276 132.920  0.00  0.00     0.151 C 
ATOM     27  H           0     129.319 130.342 134.756  0.00  0.00     0.164 HD
ATOM     28  O           0     130.605 131.571 132.232  0.00  0.00    -0.239 OA
ENDBRANCH  23  24
ENDBRANCH  22  23
ENDBRANCH   6  22
BRANCH  18  29
ATOM     29  O           0     135.138 132.919 134.949  0.00  0.00    -0.362 OA
ATOM     30  H           0     135.334 132.030 134.623  0.00  0.00     0.213 HD
ENDBRANCH  18  29
BRANCH  18  31
ATOM     31  O           0     133.158 132.481 133.767  0.00  0.00    -0.362 OA
ATOM     32  H           0     132.362 132.957 133.493  0.00  0.00     0.213 HD
ENDBRANCH  18  31
TORSDOF 5
ENDMDL
MODEL 7
REMARK VINA RESULT:      -6.8     10.118     12.901
REMARK  5 active torsions:
REMARK  status: ('A' for Active; 'I' for Inactive)
REMARK    1  A    between atoms: C_6  and  C_7 
REMARK    2  A    between atoms: C_7  and  O_8 
REMARK    3  A    between atoms: O_8  and  C_9 
REMARK       I    between atoms: C_9  and  N_10 
REMARK    4  A    between atoms: C_24  and  O_25 
REMARK    5  A    between atoms: C_24  and  O_26 
ROOT
ATOM      1  N           0     128.820 134.190 131.878  0.00  0.00    -0.235 N 
ATOM      2  H           0     128.040 133.838 131.419  0.00  0.00     0.174 HD
ATOM      3  H           0     129.073 135.119 131.760  0.00  0.00     0.174 HD
ATOM      4  C           0     129.521 133.417 132.657  0.00  0.00     0.672 C 
ATOM      5  N           0     129.197 132.087 132.863  0.00  0.00    -0.218 N 
ATOM      6  C           0     130.272 131.155 133.188  0.00  0.00     0.151 C 
ATOM      7  C           0     131.137 131.637 134.336  0.00  0.00     0.180 C 
ATOM      8  N           0     130.421 131.419 135.611  0.00  0.00    -0.216 N 
ATOM      9  C           0     130.661 132.508 136.412  0.00  0.00     0.670 C 
ATOM     10  N           0     130.504 132.513 137.706  0.00  0.00    -0.235 N 
ATOM     11  H           0     130.200 131.712 138.161  0.00  0.00     0.174 HD
ATOM     12  H           0     130.691 133.317 138.215  0.00  0.00     0.174 HD
ATOM     13  C           0     131.410 133.133 134.322  0.00  0.00     0.217 C 
ATOM     14  N           0     131.086 133.590 135.683  0.00  0.00    -0.191 N 
ATOM     15  N           0     130.632 133.866 133.323  0.00  0.00    -0.183 N 
ATOM     16  C           0     131.333 135.152 133.150  0.00  0.00     0.150 C 
ATOM     17  C           0     132.833 134.784 133.223  0.00  0.00     0.093 C 
ATOM     18  C           0     132.882 133.445 134.002  0.00  0.00     0.209 C 
ATOM     19  H           0     128.277 131.783 132.794  0.00  0.00     0.178 HD
ATOM     20  H           0     129.879 130.646 135.839  0.00  0.00     0.178 HD
ATOM     21  H           0     131.161 134.500 136.009  0.00  0.00     0.180 HD
ENDROOT
BRANCH   6  22
ATOM     22  C           0     131.153 130.967 131.952  0.00  0.00     0.208 C 
BRANCH  22  23
ATOM     23  O           0     132.107 129.900 132.195  0.00  0.00    -0.302 OA
BRANCH  23  24
ATOM     24  C           0     131.712 128.614 132.124  0.00  0.00     0.360 C 
ATOM     25  N           0     131.752 127.835 133.223  0.00  0.00    -0.341 N 
ATOM     26  C           0     131.323 126.437 133.144  0.00  0.00     0.151 C 
ATOM     27  H           0     132.065 128.200 134.065  0.00  0.00     0.164 HD
ATOM     28  O           0     131.321 128.157 131.068  0.00  0.00    -0.239 OA
ENDBRANCH  23  24
ENDBRANCH  22  23
ENDBRANCH   6  22
BRANCH  18  29
ATOM     29  O           0     133.637 133.598 135.207  0.00  0.00    -0.362 OA
ATOM     30  H           0     134.338 132.932 135.184  0.00  0.00     0.213 HD
ENDBRANCH  18  29
BRANCH  18  31
ATOM     31  O           0     133.444 132.415 133.188  0.00  0.00    -0.362 OA
ATOM     32  H           0     134.387 132.609 133.102  0.00  0.00     0.213 HD
ENDBRANCH  18  31
TORSDOF 5
ENDMDL
MODEL 8
REMARK VINA RESULT:      -6.6     10.376     12.200
REMARK  5 active torsions:
REMARK  status: ('A' for Active; 'I' for Inactive)
REMARK    1  A    between atoms: C_6  and  C_7 
REMARK    2  A    between atoms: C_7  and  O_8 
REMARK    3  A    between atoms: O_8  and  C_9 
REMARK       I    between atoms: C_9  and  N_10 
REMARK    4  A    between atoms: C_24  and  O_25 
REMARK    5  A    between atoms: C_24  and  O_26 
ROOT
ATOM      1  N           0     134.755 133.512 132.341  0.00  0.00    -0.235 N 
ATOM      2  H           0     134.833 132.871 131.616  0.00  0.00     0.174 HD
ATOM      3  H           0     135.550 133.932 132.704  0.00  0.00     0.174 HD
ATOM      4  C           0     133.582 133.811 132.822  0.00  0.00     0.672 C 
ATOM      5  N           0     132.418 133.242 132.336  0.00  0.00    -0.218 N 
ATOM      6  C           0     131.283 133.106 133.242  0.00  0.00     0.151 C 
ATOM      7  C           0     130.942 134.402 133.952  0.00  0.00     0.180 C 
ATOM      8  N           0     130.223 135.295 133.017  0.00  0.00    -0.216 N 
ATOM      9  C           0     130.679 136.572 133.232  0.00  0.00     0.670 C 
ATOM     10  N           0     130.041 137.648 132.866  0.00  0.00    -0.235 N 
ATOM     11  H           0     129.187 137.575 132.412  0.00  0.00     0.174 HD
ATOM     12  H           0     130.419 138.523 133.048  0.00  0.00     0.174 HD
ATOM     13  C           0     132.155 135.216 134.375  0.00  0.00     0.217 C 
ATOM     14  N           0     131.889 136.577 133.879  0.00  0.00    -0.191 N 
ATOM     15  N           0     133.421 134.705 133.849  0.00  0.00    -0.183 N 
ATOM     16  C           0     134.466 135.309 134.696  0.00  0.00     0.150 C 
ATOM     17  C           0     133.861 135.300 136.119  0.00  0.00     0.093 C 
ATOM     18  C           0     132.327 135.241 135.903  0.00  0.00     0.209 C 
ATOM     19  H           0     132.359 132.944 131.414  0.00  0.00     0.178 HD
ATOM     20  H           0     129.552 135.026 132.371  0.00  0.00     0.178 HD
ATOM     21  H           0     132.470 137.345 133.992  0.00  0.00     0.180 HD
ENDROOT
BRANCH   6  22
ATOM     22  C           0     131.613 132.043 134.291  0.00  0.00     0.208 C 
BRANCH  22  23
ATOM     23  O           0     131.125 130.751 133.840  0.00  0.00    -0.302 OA
BRANCH  23  24
ATOM     24  C           0     131.980 129.857 133.308  0.00  0.00     0.360 C 
ATOM     25  N           0     131.677 128.544 133.322  0.00  0.00    -0.341 N 
ATOM     26  C           0     132.607 127.572 132.744  0.00  0.00     0.151 C 
ATOM     27  H           0     130.843 128.243 133.716  0.00  0.00     0.164 HD
ATOM     28  O           0     133.025 130.234 132.816  0.00  0.00    -0.239 OA
ENDBRANCH  23  24
ENDBRANCH  22  23
ENDBRANCH   6  22
BRANCH  18  29
ATOM     29  O           0     131.700 136.398 136.461  0.00  0.00    -0.362 OA
ATOM     30  H           0     131.969 136.441 137.389  0.00  0.00     0.213 HD
ENDBRANCH  18  29
BRANCH  18  31
ATOM     31  O           0     131.788 134.052 136.483  0.00  0.00    -0.362 OA
ATOM     32  H           0     132.324 133.315 136.161  0.00  0.00     0.213 HD
ENDBRANCH  18  31
TORSDOF 5
ENDMDL
MODEL 9
REMARK VINA RESULT:      -6.5      2.403      5.861
REMARK  5 active torsions:
REMARK  status: ('A' for Active; 'I' for Inactive)
REMARK    1  A    between atoms: C_6  and  C_7 
REMARK    2  A    between atoms: C_7  and  O_8 
REMARK    3  A    between atoms: O_8  and  C_9 
REMARK       I    between atoms: C_9  and  N_10 
REMARK    4  A    between atoms: C_24  and  O_25 
REMARK    5  A    between atoms: C_24  and  O_26 
ROOT
ATOM      1  N           0     136.194 134.631 147.605  0.00  0.00    -0.235 N 
ATOM      2  H           0     135.727 135.383 147.208  0.00  0.00     0.174 HD
ATOM      3  H           0     136.702 134.753 148.422  0.00  0.00     0.174 HD
ATOM      4  C           0     136.133 133.457 147.044  0.00  0.00     0.672 C 
ATOM      5  N           0     135.417 133.231 145.881  0.00  0.00    -0.218 N 
ATOM      6  C           0     135.859 132.162 144.992  0.00  0.00     0.151 C 
ATOM      7  C           0     136.057 130.844 145.716  0.00  0.00     0.180 C 
ATOM      8  N           0     134.738 130.227 145.974  0.00  0.00    -0.216 N 
ATOM      9  C           0     134.780 129.668 147.227  0.00  0.00     0.670 C 
ATOM     10  N           0     133.957 128.748 147.646  0.00  0.00    -0.235 N 
ATOM     11  H           0     133.260 128.417 147.059  0.00  0.00     0.174 HD
ATOM     12  H           0     134.041 128.394 148.545  0.00  0.00     0.174 HD
ATOM     13  C           0     136.672 130.981 147.100  0.00  0.00     0.217 C 
ATOM     14  N           0     135.796 130.195 147.984  0.00  0.00    -0.191 N 
ATOM     15  N           0     136.779 132.365 147.563  0.00  0.00    -0.183 N 
ATOM     16  C           0     137.768 132.334 148.657  0.00  0.00     0.150 C 
ATOM     17  C           0     138.834 131.319 148.182  0.00  0.00     0.093 C 
ATOM     18  C           0     138.104 130.422 147.151  0.00  0.00     0.209 C 
ATOM     19  H           0     134.639 133.770 145.664  0.00  0.00     0.178 HD
ATOM     20  H           0     133.981 130.219 145.367  0.00  0.00     0.178 HD
ATOM     21  H           0     135.917 130.071 148.939  0.00  0.00     0.180 HD
ENDROOT
BRANCH   6  22
ATOM     22  C           0     137.183 132.572 144.347  0.00  0.00     0.208 C 
BRANCH  22  23
ATOM     23  O           0     136.968 132.856 142.939  0.00  0.00    -0.302 OA
BRANCH  23  24
ATOM     24  C           0     135.904 133.586 142.554  0.00  0.00     0.360 C 
ATOM     25  N           0     135.094 133.135 141.577  0.00  0.00    -0.341 N 
ATOM     26  C           0     133.937 133.930 141.158  0.00  0.00     0.151 C 
ATOM     27  H           0     135.277 132.283 141.150  0.00  0.00     0.164 HD
ATOM     28  O           0     135.675 134.653 143.089  0.00  0.00    -0.239 OA
ENDBRANCH  23  24
ENDBRANCH  22  23
ENDBRANCH   6  22
BRANCH  18  29
ATOM     29  O           0     138.097 129.062 147.591  0.00  0.00    -0.362 OA
ATOM     30  H           0     138.994 128.724 147.470  0.00  0.00     0.213 HD
ENDBRANCH  18  29
BRANCH  18  31
ATOM     31  O           0     138.725 130.528 145.869  0.00  0.00    -0.362 OA
ATOM     32  H           0     139.083 131.424 145.805  0.00  0.00     0.213 HD
ENDBRANCH  18  31
TORSDOF 5
ENDMDL
