# created with PyMOL 2.3.4
@<TRIPOS>MOLECULE
ligand_out_0001
32 34 1                 
SMALL
USER_CHARGES
@<TRIPOS>ATOM
1	   N	134.949	132.124	146.688	N.3	1	UNK0	-0.235	
2	   N	136.414	133.857	146.065	N.3	1	UNK0	-0.218	
3	   N	136.163	135.879	143.754	N.3	1	UNK0	-0.216	
4	   N	134.352	136.879	142.608	N.3	1	UNK0	-0.235	
5	   N	134.504	134.546	142.958	N.3	1	UNK0	-0.191	
6	   N	135.157	132.751	144.443	N.3	1	UNK0	-0.183	
7	   N	139.921	130.691	146.747	N.pl3	1	UNK0	-0.341	
8	   C	135.481	132.878	145.769	C.3	1	UNK0	0.672	
9	   C	137.394	134.211	145.044	C.3	1	UNK0	0.151	
10	   C	136.756	134.525	143.705	C.3	1	UNK0	0.180	
11	   C	134.968	135.831	143.078	C.3	1	UNK0	0.670	
12	   C	135.584	133.625	143.349	C.3	1	UNK0	0.217	
13	   C	134.364	131.685	143.803	C.3	1	UNK0	0.150	
14	   C	135.110	131.394	142.479	C.3	1	UNK0	0.093	
15	   C	135.916	132.683	142.180	C.3	1	UNK0	0.209	
16	   C	138.365	133.043	144.865	C.2	1	UNK0	0.208	
17	   C	140.057	131.905	146.177	C.2	1	UNK0	0.360	
18	   C	141.062	129.774	146.795	C.3	1	UNK0	0.151	
19	   O	139.009	132.749	146.133	O.2	1	UNK0	-0.302	
20	   O	141.125	132.238	145.704	O.co2	1	UNK0	-0.239	
21	   O	135.498	133.255	140.938	O.2	1	UNK0	-0.362	
22	   O	137.316	132.400	142.152	O.2	1	UNK0	-0.362	
23	   H	135.204	132.239	147.617	 H	1	UNK0	0.174	
24	   H	134.295	131.450	146.445	 H	1	UNK0	0.174	
25	   H	134.735	137.762	142.727	 H	1	UNK0	0.174	
26	   H	133.509	136.777	142.139	 H	1	UNK0	0.174	
27	   H	136.414	134.296	146.931	 H	1	UNK0	0.178	
28	   H	136.547	136.658	144.186	 H	1	UNK0	0.178	
29	   H	133.616	134.287	142.664	 H	1	UNK0	0.180	
30	   H	139.069	130.426	147.125	 H	1	UNK0	0.164	
31	   H	136.281	133.654	140.536	 H	1	UNK0	0.213	
32	   H	137.439	131.551	142.599	 H	1	UNK0	0.213	
@<TRIPOS>BOND
1 1 8 1
2 1 23 1
3 1 24 1
4 2 9 1
5 2 27 1
6 3 11 1
7 3 28 1
8 4 25 1
9 4 26 1
10 5 29 1
11 6 13 1
12 7 18 1
13 7 30 1
14 2 8 1
15 6 8 1
16 9 10 1
17 9 16 1
18 3 10 1
19 10 12 1
20 4 11 1
21 5 11 1
22 5 12 1
23 6 12 1
24 12 15 1
25 13 14 1
26 14 15 1
27 15 21 2
28 15 22 2
29 16 19 2
30 7 17 1
31 17 20 2
32 17 19 2
33 21 31 1
34 22 32 1
@<TRIPOS>SUBSTRUCTURE
1	UNK0	1	GROUP	1 ****	UNK
