# created with PyMOL 2.3.4
@<TRIPOS>MOLECULE
ligand_out_0001
46 49 1                 
SMALL
USER_CHARGES
@<TRIPOS>ATOM
1	   N	134.683	131.849	146.512	N.3	1	UNK0	-0.235	
2	   N	136.189	133.604	146.082	N.3	1	UNK0	-0.218	
3	   N	136.092	135.755	143.878	N.3	1	UNK0	-0.216	
4	   N	134.360	136.833	142.680	N.3	1	UNK0	-0.235	
5	   N	134.481	134.482	142.906	N.3	1	UNK0	-0.191	
6	   N	135.034	132.601	144.323	N.3	1	UNK0	-0.183	
7	   N	138.835	132.019	148.423	N.pl3	1	UNK0	-0.335	
8	   N	136.147	131.314	150.505	N.pl3	1	UNK0	-0.359	
9	   N	133.435	129.039	149.212	N.pl3	1	UNK0	-0.288	
10	   C	135.274	132.651	145.671	C.3	1	UNK0	0.672	
11	   C	137.234	134.009	145.145	C.3	1	UNK0	0.151	
12	   C	136.683	134.403	143.788	C.3	1	UNK0	0.180	
13	   C	134.941	135.755	143.127	C.3	1	UNK0	0.670	
14	   C	135.531	133.532	143.310	C.3	1	UNK0	0.217	
15	   C	134.278	131.579	143.576	C.3	1	UNK0	0.150	
16	   C	135.104	131.357	142.286	C.3	1	UNK0	0.093	
17	   C	135.933	132.656	142.111	C.3	1	UNK0	0.209	
18	   C	138.210	132.846	144.961	C.2	1	UNK0	0.208	
19	   C	138.522	131.809	147.130	C.2	1	UNK0	0.360	
20	   C	138.346	131.100	149.454	C.3	1	UNK0	0.144	
21	   C	137.500	131.874	150.468	C.3	1	UNK0	0.142	
22	   C	135.141	131.940	149.864	C.2	1	UNK0	0.219	
23	   C	133.749	131.365	149.900	C.3	1	UNK0	0.123	
24	   C	133.813	129.899	150.336	C.3	1	UNK0	0.144	
25	   C	134.292	128.700	148.240	C.2	1	UNK0	0.226	
26	   C	133.586	127.805	147.245	C.3	1	UNK0	0.112	
27	   C	132.156	127.692	147.812	C.3	1	UNK0	0.112	
28	   C	132.205	128.531	149.070	C.2	1	UNK0	0.226	
29	   O	138.971	132.654	146.182	O.2	1	UNK0	-0.302	
30	   O	137.834	130.857	146.818	O.co2	1	UNK0	-0.239	
31	   O	135.356	132.968	149.256	O.2	1	UNK0	-0.274	
32	   O	135.450	129.049	148.172	O.2	1	UNK0	-0.273	
33	   O	131.278	128.714	149.829	O.2	1	UNK0	-0.273	
34	   O	135.596	133.300	140.881	O.2	1	UNK0	-0.362	
35	   O	137.331	132.365	142.155	O.2	1	UNK0	-0.362	
36	   H	134.880	131.910	147.460	 H	1	UNK0	0.174	
37	   H	134.043	131.195	146.189	 H	1	UNK0	0.174	
38	   H	134.739	137.705	142.873	 H	1	UNK0	0.174	
39	   H	133.547	136.763	142.154	 H	1	UNK0	0.174	
40	   H	136.138	133.993	146.969	 H	1	UNK0	0.178	
41	   H	136.450	136.506	144.377	 H	1	UNK0	0.178	
42	   H	133.612	134.247	142.542	 H	1	UNK0	0.180	
43	   H	139.383	132.779	148.672	 H	1	UNK0	0.164	
44	   H	135.975	130.492	150.991	 H	1	UNK0	0.162	
45	   H	135.306	132.607	140.273	 H	1	UNK0	0.213	
46	   H	137.731	133.005	142.761	 H	1	UNK0	0.213	
@<TRIPOS>BOND
1 1 10 1
2 1 36 1
3 1 37 1
4 2 11 1
5 2 40 1
6 3 13 1
7 3 41 1
8 4 38 1
9 4 39 1
10 5 42 1
11 6 15 1
12 7 20 1
13 7 43 1
14 8 22 1
15 8 44 1
16 9 25 1
17 9 28 1
18 2 10 1
19 6 10 1
20 11 12 1
21 11 18 1
22 3 12 1
23 12 14 1
24 4 13 1
25 5 13 1
26 5 14 1
27 6 14 1
28 14 17 1
29 15 16 1
30 16 17 1
31 17 34 2
32 17 35 2
33 18 29 2
34 7 19 1
35 19 30 2
36 20 21 1
37 8 21 1
38 22 23 1
39 22 31 2
40 23 24 1
41 9 24 1
42 25 26 1
43 25 32 2
44 26 27 1
45 27 28 1
46 28 33 2
47 19 29 2
48 34 45 1
49 35 46 1
@<TRIPOS>SUBSTRUCTURE
1	UNK0	1	GROUP	1 ****	UNK
