# created with PyMOL 2.3.4
@<TRIPOS>MOLECULE
ligand_out_0001
32 34 1                 
SMALL
USER_CHARGES
@<TRIPOS>ATOM
1	   N	135.066	132.402	146.946	N.3	1	UNK0	-0.235	
2	   N	136.315	134.248	146.192	N.3	1	UNK0	-0.218	
3	   N	135.925	135.953	143.656	N.3	1	UNK0	-0.216	
4	   N	134.063	136.559	142.328	N.3	1	UNK0	-0.235	
5	   N	134.511	134.322	142.949	N.3	1	UNK0	-0.191	
6	   N	135.316	132.807	144.654	N.3	1	UNK0	-0.183	
7	   N	140.043	135.985	145.671	N.pl3	1	UNK0	-0.346	
8	   C	135.542	133.121	145.969	C.3	1	UNK0	0.672	
9	   C	137.296	134.625	145.179	C.3	1	UNK0	0.151	
10	   C	136.698	134.700	143.787	C.3	1	UNK0	0.180	
11	   C	134.789	135.666	142.940	C.3	1	UNK0	0.670	
12	   C	135.682	133.610	143.487	C.3	1	UNK0	0.217	
13	   C	134.713	131.578	144.108	C.3	1	UNK0	0.150	
14	   C	135.567	131.254	142.858	C.3	1	UNK0	0.093	
15	   C	136.206	132.605	142.447	C.3	1	UNK0	0.209	
16	   C	138.425	133.594	145.176	C.2	1	UNK0	0.208	
17	   C	139.881	135.398	144.469	C.2	1	UNK0	0.358	
18	   O	139.540	134.097	144.395	O.2	1	UNK0	-0.302	
19	   O	140.042	136.042	143.451	O.co2	1	UNK0	-0.239	
20	   O	135.786	132.975	141.133	O.2	1	UNK0	-0.362	
21	   O	137.632	132.522	142.512	O.2	1	UNK0	-0.362	
22	   H	135.249	132.650	147.866	 H	1	UNK0	0.174	
23	   H	134.525	131.619	146.754	 H	1	UNK0	0.174	
24	   H	134.317	137.495	142.361	 H	1	UNK0	0.174	
25	   H	133.271	136.288	141.838	 H	1	UNK0	0.174	
26	   H	136.206	134.772	147.000	 H	1	UNK0	0.178	
27	   H	136.174	136.821	144.011	 H	1	UNK0	0.178	
28	   H	133.685	133.911	142.649	 H	1	UNK0	0.180	
29	   H	139.915	135.471	146.484	 H	1	UNK0	0.161	
30	   H	140.288	136.922	145.724	 H	1	UNK0	0.161	
31	   H	136.589	133.123	140.614	 H	1	UNK0	0.213	
32	   H	137.873	132.582	143.447	 H	1	UNK0	0.213	
@<TRIPOS>BOND
1 1 8 1
2 1 22 1
3 1 23 1
4 2 9 1
5 2 26 1
6 3 11 1
7 3 27 1
8 4 24 1
9 4 25 1
10 5 28 1
11 6 13 1
12 7 29 1
13 7 30 1
14 2 8 1
15 6 8 1
16 9 10 1
17 9 16 1
18 3 10 1
19 10 12 1
20 4 11 1
21 5 11 1
22 5 12 1
23 6 12 1
24 12 15 1
25 13 14 1
26 14 15 1
27 15 20 2
28 15 21 2
29 16 18 2
30 7 17 1
31 17 19 2
32 17 18 2
33 20 31 1
34 21 32 1
@<TRIPOS>SUBSTRUCTURE
1	UNK0	1	GROUP	1 ****	UNK
