MODEL 1
REMARK VINA RESULT:      -8.2      0.000      0.000
REMARK  5 active torsions:
REMARK  status: ('A' for Active; 'I' for Inactive)
REMARK    1  A    between atoms: C_6  and  C_7 
REMARK    2  A    between atoms: C_7  and  O_8 
REMARK    3  A    between atoms: O_8  and  C_9 
REMARK       I    between atoms: C_9  and  N_10 
REMARK    4  A    between atoms: C_23  and  O_24 
REMARK    5  A    between atoms: C_23  and  O_25 
ROOT
ATOM      1  N           0     135.066 132.402 146.946  0.00  0.00    -0.235 N 
ATOM      2  H           0     135.249 132.650 147.866  0.00  0.00     0.174 HD
ATOM      3  H           0     134.525 131.619 146.754  0.00  0.00     0.174 HD
ATOM      4  C           0     135.542 133.121 145.969  0.00  0.00     0.672 C 
ATOM      5  N           0     136.315 134.248 146.192  0.00  0.00    -0.218 N 
ATOM      6  C           0     137.296 134.625 145.179  0.00  0.00     0.151 C 
ATOM      7  C           0     136.698 134.700 143.787  0.00  0.00     0.180 C 
ATOM      8  N           0     135.925 135.953 143.656  0.00  0.00    -0.216 N 
ATOM      9  C           0     134.789 135.666 142.940  0.00  0.00     0.670 C 
ATOM     10  N           0     134.063 136.559 142.328  0.00  0.00    -0.235 N 
ATOM     11  H           0     134.317 137.495 142.361  0.00  0.00     0.174 HD
ATOM     12  H           0     133.271 136.288 141.838  0.00  0.00     0.174 HD
ATOM     13  C           0     135.682 133.610 143.487  0.00  0.00     0.217 C 
ATOM     14  N           0     134.511 134.322 142.949  0.00  0.00    -0.191 N 
ATOM     15  N           0     135.316 132.807 144.654  0.00  0.00    -0.183 N 
ATOM     16  C           0     134.713 131.578 144.108  0.00  0.00     0.150 C 
ATOM     17  C           0     135.567 131.254 142.858  0.00  0.00     0.093 C 
ATOM     18  C           0     136.206 132.605 142.447  0.00  0.00     0.209 C 
ATOM     19  H           0     136.206 134.772 147.000  0.00  0.00     0.178 HD
ATOM     20  H           0     136.174 136.821 144.011  0.00  0.00     0.178 HD
ATOM     21  H           0     133.685 133.911 142.649  0.00  0.00     0.180 HD
ENDROOT
BRANCH   6  22
ATOM     22  C           0     138.425 133.594 145.176  0.00  0.00     0.208 C 
BRANCH  22  23
ATOM     23  O           0     139.540 134.097 144.395  0.00  0.00    -0.302 OA
BRANCH  23  24
ATOM     24  C           0     139.881 135.398 144.469  0.00  0.00     0.358 C 
ATOM     25  N           0     140.043 135.985 145.671  0.00  0.00    -0.346 N 
ATOM     26  H           0     139.915 135.471 146.484  0.00  0.00     0.161 HD
ATOM     27  H           0     140.288 136.922 145.724  0.00  0.00     0.161 HD
ATOM     28  O           0     140.042 136.042 143.451  0.00  0.00    -0.239 OA
ENDBRANCH  23  24
ENDBRANCH  22  23
ENDBRANCH   6  22
BRANCH  18  29
ATOM     29  O           0     135.786 132.975 141.133  0.00  0.00    -0.362 OA
ATOM     30  H           0     136.589 133.123 140.614  0.00  0.00     0.213 HD
ENDBRANCH  18  29
BRANCH  18  31
ATOM     31  O           0     137.632 132.522 142.512  0.00  0.00    -0.362 OA
ATOM     32  H           0     137.873 132.582 143.447  0.00  0.00     0.213 HD
ENDBRANCH  18  31
TORSDOF 5
ENDMDL
MODEL 2
REMARK VINA RESULT:      -8.0      1.462      2.069
REMARK  5 active torsions:
REMARK  status: ('A' for Active; 'I' for Inactive)
REMARK    1  A    between atoms: C_6  and  C_7 
REMARK    2  A    between atoms: C_7  and  O_8 
REMARK    3  A    between atoms: O_8  and  C_9 
REMARK       I    between atoms: C_9  and  N_10 
REMARK    4  A    between atoms: C_23  and  O_24 
REMARK    5  A    between atoms: C_23  and  O_25 
ROOT
ATOM      1  N           0     135.528 132.753 147.138  0.00  0.00    -0.235 N 
ATOM      2  H           0     135.830 133.017 148.021  0.00  0.00     0.174 HD
ATOM      3  H           0     134.917 132.006 147.038  0.00  0.00     0.174 HD
ATOM      4  C           0     135.940 133.402 146.085  0.00  0.00     0.672 C 
ATOM      5  N           0     136.808 134.476 146.176  0.00  0.00    -0.218 N 
ATOM      6  C           0     137.693 134.748 145.046  0.00  0.00     0.151 C 
ATOM      7  C           0     136.950 134.819 143.727  0.00  0.00     0.180 C 
ATOM      8  N           0     136.255 136.120 143.630  0.00  0.00    -0.216 N 
ATOM      9  C           0     135.028 135.893 143.055  0.00  0.00     0.670 C 
ATOM     10  N           0     134.302 136.816 142.489  0.00  0.00    -0.235 N 
ATOM     11  H           0     134.621 137.731 142.456  0.00  0.00     0.174 HD
ATOM     12  H           0     133.443 136.587 142.101  0.00  0.00     0.174 HD
ATOM     13  C           0     135.834 133.797 143.585  0.00  0.00     0.217 C 
ATOM     14  N           0     134.661 134.574 143.149  0.00  0.00    -0.191 N 
ATOM     15  N           0     135.547 133.062 144.817  0.00  0.00    -0.183 N 
ATOM     16  C           0     134.803 131.862 144.392  0.00  0.00     0.150 C 
ATOM     17  C           0     135.487 131.436 143.070  0.00  0.00     0.093 C 
ATOM     18  C           0     136.168 132.722 142.536  0.00  0.00     0.209 C 
ATOM     19  H           0     136.828 135.034 146.968  0.00  0.00     0.178 HD
ATOM     20  H           0     136.601 136.979 143.920  0.00  0.00     0.178 HD
ATOM     21  H           0     133.781 134.214 142.959  0.00  0.00     0.180 HD
ENDROOT
BRANCH   6  22
ATOM     22  C           0     138.741 133.637 144.963  0.00  0.00     0.208 C 
BRANCH  22  23
ATOM     23  O           0     138.695 132.835 146.171  0.00  0.00    -0.302 OA
BRANCH  23  24
ATOM     24  C           0     139.096 131.549 146.143  0.00  0.00     0.358 C 
ATOM     25  N           0     138.197 130.568 145.932  0.00  0.00    -0.346 N 
ATOM     26  H           0     137.261 130.787 145.800  0.00  0.00     0.161 HD
ATOM     27  H           0     138.486 129.642 145.912  0.00  0.00     0.161 HD
ATOM     28  O           0     140.268 131.275 146.307  0.00  0.00    -0.239 OA
ENDBRANCH  23  24
ENDBRANCH  22  23
ENDBRANCH   6  22
BRANCH  18  29
ATOM     29  O           0     135.629 133.078 141.262  0.00  0.00    -0.362 OA
ATOM     30  H           0     136.373 133.371 140.717  0.00  0.00     0.213 HD
ENDBRANCH  18  29
BRANCH  18  31
ATOM     31  O           0     137.582 132.537 142.448  0.00  0.00    -0.362 OA
ATOM     32  H           0     137.962 133.395 142.212  0.00  0.00     0.213 HD
ENDBRANCH  18  31
TORSDOF 5
ENDMDL
MODEL 3
REMARK VINA RESULT:      -7.9      2.302      5.185
REMARK  5 active torsions:
REMARK  status: ('A' for Active; 'I' for Inactive)
REMARK    1  A    between atoms: C_6  and  C_7 
REMARK    2  A    between atoms: C_7  and  O_8 
REMARK    3  A    between atoms: O_8  and  C_9 
REMARK       I    between atoms: C_9  and  N_10 
REMARK    4  A    between atoms: C_23  and  O_24 
REMARK    5  A    between atoms: C_23  and  O_25 
ROOT
ATOM      1  N           0     136.213 134.813 147.685  0.00  0.00    -0.235 N 
ATOM      2  H           0     135.358 134.737 148.135  0.00  0.00     0.174 HD
ATOM      3  H           0     136.759 135.606 147.813  0.00  0.00     0.174 HD
ATOM      4  C           0     136.632 133.852 146.911  0.00  0.00     0.672 C 
ATOM      5  N           0     135.893 132.701 146.700  0.00  0.00    -0.218 N 
ATOM      6  C           0     136.058 131.995 145.433  0.00  0.00     0.151 C 
ATOM      7  C           0     137.513 131.718 145.104  0.00  0.00     0.180 C 
ATOM      8  N           0     137.988 130.581 145.921  0.00  0.00    -0.216 N 
ATOM      9  C           0     139.270 130.866 146.322  0.00  0.00     0.670 C 
ATOM     10  N           0     140.124 129.973 146.737  0.00  0.00    -0.235 N 
ATOM     11  H           0     139.867 129.039 146.776  0.00  0.00     0.174 HD
ATOM     12  H           0     141.016 130.243 147.006  0.00  0.00     0.174 HD
ATOM     13  C           0     138.459 132.851 145.469  0.00  0.00     0.217 C 
ATOM     14  N           0     139.542 132.209 146.232  0.00  0.00    -0.191 N 
ATOM     15  N           0     137.830 133.918 146.248  0.00  0.00    -0.183 N 
ATOM     16  C           0     138.728 135.079 146.115  0.00  0.00     0.150 C 
ATOM     17  C           0     139.214 135.022 144.647  0.00  0.00     0.093 C 
ATOM     18  C           0     139.037 133.542 144.222  0.00  0.00     0.209 C 
ATOM     19  H           0     135.281 132.372 147.377  0.00  0.00     0.178 HD
ATOM     20  H           0     137.486 129.779 146.135  0.00  0.00     0.178 HD
ATOM     21  H           0     140.316 132.658 146.605  0.00  0.00     0.180 HD
ENDROOT
BRANCH   6  22
ATOM     22  C           0     135.452 132.842 144.313  0.00  0.00     0.208 C 
BRANCH  22  23
ATOM     23  O           0     135.489 132.097 143.068  0.00  0.00    -0.302 OA
BRANCH  23  24
ATOM     24  C           0     134.967 132.632 141.947  0.00  0.00     0.358 C 
ATOM     25  N           0     135.777 133.187 141.024  0.00  0.00    -0.346 N 
ATOM     26  H           0     136.737 133.202 141.167  0.00  0.00     0.161 HD
ATOM     27  H           0     135.400 133.573 140.217  0.00  0.00     0.161 HD
ATOM     28  O           0     133.765 132.613 141.769  0.00  0.00    -0.239 OA
ENDBRANCH  23  24
ENDBRANCH  22  23
ENDBRANCH   6  22
BRANCH  18  29
ATOM     29  O           0     140.298 132.971 143.869  0.00  0.00    -0.362 OA
ATOM     30  H           0     140.476 133.231 142.955  0.00  0.00     0.213 HD
ENDBRANCH  18  29
BRANCH  18  31
ATOM     31  O           0     138.120 133.443 143.130  0.00  0.00    -0.362 OA
ATOM     32  H           0     137.489 132.747 143.357  0.00  0.00     0.213 HD
ENDBRANCH  18  31
TORSDOF 5
ENDMDL
MODEL 4
REMARK VINA RESULT:      -7.6      2.747      4.519
REMARK  5 active torsions:
REMARK  status: ('A' for Active; 'I' for Inactive)
REMARK    1  A    between atoms: C_6  and  C_7 
REMARK    2  A    between atoms: C_7  and  O_8 
REMARK    3  A    between atoms: O_8  and  C_9 
REMARK       I    between atoms: C_9  and  N_10 
REMARK    4  A    between atoms: C_23  and  O_24 
REMARK    5  A    between atoms: C_23  and  O_25 
ROOT
ATOM      1  N           0     138.820 130.501 145.970  0.00  0.00    -0.235 N 
ATOM      2  H           0     138.440 129.797 146.517  0.00  0.00     0.174 HD
ATOM      3  H           0     139.770 130.500 145.769  0.00  0.00     0.174 HD
ATOM      4  C           0     138.057 131.448 145.502  0.00  0.00     0.672 C 
ATOM      5  N           0     136.697 131.492 145.757  0.00  0.00    -0.218 N 
ATOM      6  C           0     136.038 132.795 145.773  0.00  0.00     0.151 C 
ATOM      7  C           0     136.337 133.616 144.534  0.00  0.00     0.180 C 
ATOM      8  N           0     135.532 133.105 143.405  0.00  0.00    -0.216 N 
ATOM      9  C           0     136.323 133.138 142.283  0.00  0.00     0.670 C 
ATOM     10  N           0     135.866 133.111 141.063  0.00  0.00    -0.235 N 
ATOM     11  H           0     134.909 133.065 140.905  0.00  0.00     0.174 HD
ATOM     12  H           0     136.481 133.137 140.314  0.00  0.00     0.174 HD
ATOM     13  C           0     137.771 133.499 144.043  0.00  0.00     0.217 C 
ATOM     14  N           0     137.656 133.202 142.605  0.00  0.00    -0.191 N 
ATOM     15  N           0     138.549 132.468 144.730  0.00  0.00    -0.183 N 
ATOM     16  C           0     139.960 132.799 144.461  0.00  0.00     0.150 C 
ATOM     17  C           0     140.009 134.345 144.525  0.00  0.00     0.093 C 
ATOM     18  C           0     138.557 134.807 144.245  0.00  0.00     0.209 C 
ATOM     19  H           0     136.195 130.678 145.920  0.00  0.00     0.178 HD
ATOM     20  H           0     134.611 132.802 143.448  0.00  0.00     0.178 HD
ATOM     21  H           0     138.395 133.076 141.990  0.00  0.00     0.180 HD
ENDROOT
BRANCH   6  22
ATOM     22  C           0     136.508 133.570 147.005  0.00  0.00     0.208 C 
BRANCH  22  23
ATOM     23  O           0     135.556 133.388 148.085  0.00  0.00    -0.302 OA
BRANCH  23  24
ATOM     24  C           0     135.245 132.147 148.507  0.00  0.00     0.358 C 
ATOM     25  N           0     133.959 131.747 148.536  0.00  0.00    -0.346 N 
ATOM     26  H           0     133.255 132.353 148.253  0.00  0.00     0.161 HD
ATOM     27  H           0     133.735 130.854 148.840  0.00  0.00     0.161 HD
ATOM     28  O           0     136.126 131.388 148.861  0.00  0.00    -0.239 OA
ENDBRANCH  23  24
ENDBRANCH  22  23
ENDBRANCH   6  22
BRANCH  18  29
ATOM     29  O           0     138.508 135.610 143.064  0.00  0.00    -0.362 OA
ATOM     30  H           0     137.602 135.940 142.988  0.00  0.00     0.213 HD
ENDBRANCH  18  29
BRANCH  18  31
ATOM     31  O           0     138.039 135.529 145.363  0.00  0.00    -0.362 OA
ATOM     32  H           0     137.968 136.454 145.089  0.00  0.00     0.213 HD
ENDBRANCH  18  31
TORSDOF 5
ENDMDL
MODEL 5
REMARK VINA RESULT:      -7.2      1.747      2.243
REMARK  5 active torsions:
REMARK  status: ('A' for Active; 'I' for Inactive)
REMARK    1  A    between atoms: C_6  and  C_7 
REMARK    2  A    between atoms: C_7  and  O_8 
REMARK    3  A    between atoms: O_8  and  C_9 
REMARK       I    between atoms: C_9  and  N_10 
REMARK    4  A    between atoms: C_23  and  O_24 
REMARK    5  A    between atoms: C_23  and  O_25 
ROOT
ATOM      1  N           0     135.953 134.714 146.938  0.00  0.00    -0.235 N 
ATOM      2  H           0     136.303 135.589 147.167  0.00  0.00     0.174 HD
ATOM      3  H           0     135.566 134.150 147.627  0.00  0.00     0.174 HD
ATOM      4  C           0     135.997 134.297 145.704  0.00  0.00     0.672 C 
ATOM      5  N           0     136.533 135.065 144.685  0.00  0.00    -0.218 N 
ATOM      6  C           0     137.119 134.380 143.536  0.00  0.00     0.151 C 
ATOM      7  C           0     136.188 133.342 142.939  0.00  0.00     0.180 C 
ATOM      8  N           0     135.151 134.024 142.136  0.00  0.00    -0.216 N 
ATOM      9  C           0     133.963 133.371 142.353  0.00  0.00     0.670 C 
ATOM     10  N           0     132.928 133.450 141.564  0.00  0.00    -0.235 N 
ATOM     11  H           0     132.970 133.997 140.764  0.00  0.00     0.174 HD
ATOM     12  H           0     132.118 132.961 141.777  0.00  0.00     0.174 HD
ATOM     13  C           0     135.394 132.553 143.968  0.00  0.00     0.217 C 
ATOM     14  N           0     133.998 132.624 143.505  0.00  0.00    -0.191 N 
ATOM     15  N           0     135.521 133.067 145.332  0.00  0.00    -0.183 N 
ATOM     16  C           0     135.084 131.963 146.206  0.00  0.00     0.150 C 
ATOM     17  C           0     135.644 130.691 145.525  0.00  0.00     0.093 C 
ATOM     18  C           0     135.847 131.085 144.040  0.00  0.00     0.209 C 
ATOM     19  H           0     136.520 136.033 144.733  0.00  0.00     0.178 HD
ATOM     20  H           0     135.285 134.794 141.560  0.00  0.00     0.178 HD
ATOM     21  H           0     133.235 132.212 143.937  0.00  0.00     0.180 HD
ENDROOT
BRANCH   6  22
ATOM     22  C           0     138.409 133.688 143.980  0.00  0.00     0.208 C 
BRANCH  22  23
ATOM     23  O           0     139.247 134.635 144.692  0.00  0.00    -0.302 OA
BRANCH  23  24
ATOM     24  C           0     139.815 134.284 145.862  0.00  0.00     0.358 C 
ATOM     25  N           0     140.590 133.184 145.932  0.00  0.00    -0.346 N 
ATOM     26  H           0     140.738 132.643 145.139  0.00  0.00     0.161 HD
ATOM     27  H           0     140.999 132.931 146.774  0.00  0.00     0.161 HD
ATOM     28  O           0     139.630 134.961 146.854  0.00  0.00    -0.239 OA
ENDBRANCH  23  24
ENDBRANCH  22  23
ENDBRANCH   6  22
BRANCH  18  29
ATOM     29  O           0     135.038 130.266 143.193  0.00  0.00    -0.362 OA
ATOM     30  H           0     134.117 130.495 143.381  0.00  0.00     0.213 HD
ENDBRANCH  18  29
BRANCH  18  31
ATOM     31  O           0     137.224 130.971 143.677  0.00  0.00    -0.362 OA
ATOM     32  H           0     137.273 130.315 142.968  0.00  0.00     0.213 HD
ENDBRANCH  18  31
TORSDOF 5
ENDMDL
MODEL 6
REMARK VINA RESULT:      -7.0      2.324      5.283
REMARK  5 active torsions:
REMARK  status: ('A' for Active; 'I' for Inactive)
REMARK    1  A    between atoms: C_6  and  C_7 
REMARK    2  A    between atoms: C_7  and  O_8 
REMARK    3  A    between atoms: O_8  and  C_9 
REMARK       I    between atoms: C_9  and  N_10 
REMARK    4  A    between atoms: C_23  and  O_24 
REMARK    5  A    between atoms: C_23  and  O_25 
ROOT
ATOM      1  N           0     136.795 134.750 143.122  0.00  0.00    -0.235 N 
ATOM      2  H           0     135.867 134.908 142.891  0.00  0.00     0.174 HD
ATOM      3  H           0     137.467 134.697 142.424  0.00  0.00     0.174 HD
ATOM      4  C           0     137.143 134.613 144.371  0.00  0.00     0.672 C 
ATOM      5  N           0     136.223 134.684 145.404  0.00  0.00    -0.218 N 
ATOM      6  C           0     136.500 133.941 146.629  0.00  0.00     0.151 C 
ATOM      7  C           0     137.887 134.217 147.179  0.00  0.00     0.180 C 
ATOM      8  N           0     137.890 135.533 147.851  0.00  0.00    -0.216 N 
ATOM      9  C           0     139.080 136.149 147.550  0.00  0.00     0.670 C 
ATOM     10  N           0     139.589 137.135 148.234  0.00  0.00    -0.235 N 
ATOM     11  H           0     139.120 137.478 149.011  0.00  0.00     0.174 HD
ATOM     12  H           0     140.436 137.525 147.966  0.00  0.00     0.174 HD
ATOM     13  C           0     138.963 134.348 146.113  0.00  0.00     0.217 C 
ATOM     14  N           0     139.669 135.598 146.439  0.00  0.00    -0.191 N 
ATOM     15  N           0     138.440 134.382 144.747  0.00  0.00    -0.183 N 
ATOM     16  C           0     139.589 134.059 143.881  0.00  0.00     0.150 C 
ATOM     17  C           0     140.365 132.972 144.664  0.00  0.00     0.093 C 
ATOM     18  C           0     139.949 133.167 146.144  0.00  0.00     0.209 C 
ATOM     19  H           0     135.417 135.215 145.315  0.00  0.00     0.178 HD
ATOM     20  H           0     137.182 135.897 148.405  0.00  0.00     0.178 HD
ATOM     21  H           0     140.422 135.968 145.953  0.00  0.00     0.180 HD
ENDROOT
BRANCH   6  22
ATOM     22  C           0     136.374 132.445 146.339  0.00  0.00     0.208 C 
BRANCH  22  23
ATOM     23  O           0     135.043 132.160 145.835  0.00  0.00    -0.302 OA
BRANCH  23  24
ATOM     24  C           0     134.877 131.754 144.561  0.00  0.00     0.358 C 
ATOM     25  N           0     135.112 130.470 144.227  0.00  0.00    -0.346 N 
ATOM     26  H           0     135.400 129.837 144.904  0.00  0.00     0.161 HD
ATOM     27  H           0     134.993 130.177 143.310  0.00  0.00     0.161 HD
ATOM     28  O           0     134.516 132.546 143.714  0.00  0.00    -0.239 OA
ENDBRANCH  23  24
ENDBRANCH  22  23
ENDBRANCH   6  22
BRANCH  18  29
ATOM     29  O           0     141.090 133.486 146.943  0.00  0.00    -0.362 OA
ATOM     30  H           0     140.862 134.275 147.454  0.00  0.00     0.213 HD
ENDBRANCH  18  29
BRANCH  18  31
ATOM     31  O           0     139.303 131.993 146.639  0.00  0.00    -0.362 OA
ATOM     32  H           0     138.351 132.136 146.543  0.00  0.00     0.213 HD
ENDBRANCH  18  31
TORSDOF 5
ENDMDL
MODEL 7
REMARK VINA RESULT:      -6.8      2.570      5.138
REMARK  5 active torsions:
REMARK  status: ('A' for Active; 'I' for Inactive)
REMARK    1  A    between atoms: C_6  and  C_7 
REMARK    2  A    between atoms: C_7  and  O_8 
REMARK    3  A    between atoms: O_8  and  C_9 
REMARK       I    between atoms: C_9  and  N_10 
REMARK    4  A    between atoms: C_23  and  O_24 
REMARK    5  A    between atoms: C_23  and  O_25 
ROOT
ATOM      1  N           0     135.046 129.896 144.569  0.00  0.00    -0.235 N 
ATOM      2  H           0     134.703 129.370 143.830  0.00  0.00     0.174 HD
ATOM      3  H           0     134.940 129.580 145.480  0.00  0.00     0.174 HD
ATOM      4  C           0     135.654 131.026 144.339  0.00  0.00     0.672 C 
ATOM      5  N           0     135.835 131.518 143.058  0.00  0.00    -0.218 N 
ATOM      6  C           0     135.924 132.964 142.879  0.00  0.00     0.151 C 
ATOM      7  C           0     136.939 133.606 143.805  0.00  0.00     0.180 C 
ATOM      8  N           0     138.299 133.352 143.286  0.00  0.00    -0.216 N 
ATOM      9  C           0     139.111 133.092 144.363  0.00  0.00     0.670 C 
ATOM     10  N           0     140.411 133.180 144.338  0.00  0.00    -0.235 N 
ATOM     11  H           0     140.864 133.443 143.522  0.00  0.00     0.174 HD
ATOM     12  H           0     140.926 132.982 145.136  0.00  0.00     0.174 HD
ATOM     13  C           0     136.964 133.014 145.205  0.00  0.00     0.217 C 
ATOM     14  N           0     138.384 132.728 145.469  0.00  0.00    -0.191 N 
ATOM     15  N           0     136.151 131.806 145.350  0.00  0.00    -0.183 N 
ATOM     16  C           0     135.938 131.652 146.801  0.00  0.00     0.150 C 
ATOM     17  C           0     135.741 133.098 147.316  0.00  0.00     0.093 C 
ATOM     18  C           0     136.425 133.999 146.256  0.00  0.00     0.209 C 
ATOM     19  H           0     135.901 130.917 142.300  0.00  0.00     0.178 HD
ATOM     20  H           0     138.570 133.367 142.355  0.00  0.00     0.178 HD
ATOM     21  H           0     138.745 132.350 146.286  0.00  0.00     0.180 HD
ENDROOT
BRANCH   6  22
ATOM     22  C           0     134.550 133.580 143.149  0.00  0.00     0.208 C 
BRANCH  22  23
ATOM     23  O           0     134.010 134.121 141.915  0.00  0.00    -0.302 OA
BRANCH  23  24
ATOM     24  C           0     133.029 133.467 141.265  0.00  0.00     0.358 C 
ATOM     25  N           0     132.609 132.266 141.711  0.00  0.00    -0.346 N 
ATOM     26  H           0     133.014 131.873 142.501  0.00  0.00     0.161 HD
ATOM     27  H           0     131.902 131.795 141.243  0.00  0.00     0.161 HD
ATOM     28  O           0     132.522 133.959 140.276  0.00  0.00    -0.239 OA
ENDBRANCH  23  24
ENDBRANCH  22  23
ENDBRANCH   6  22
BRANCH  18  29
ATOM     29  O           0     137.494 134.740 146.847  0.00  0.00    -0.362 OA
ATOM     30  H           0     137.802 135.368 146.179  0.00  0.00     0.213 HD
ENDBRANCH  18  29
BRANCH  18  31
ATOM     31  O           0     135.472 134.884 145.664  0.00  0.00    -0.362 OA
ATOM     32  H           0     135.877 135.763 145.651  0.00  0.00     0.213 HD
ENDBRANCH  18  31
TORSDOF 5
ENDMDL
MODEL 8
REMARK VINA RESULT:      -6.7      2.640      5.362
REMARK  5 active torsions:
REMARK  status: ('A' for Active; 'I' for Inactive)
REMARK    1  A    between atoms: C_6  and  C_7 
REMARK    2  A    between atoms: C_7  and  O_8 
REMARK    3  A    between atoms: O_8  and  C_9 
REMARK       I    between atoms: C_9  and  N_10 
REMARK    4  A    between atoms: C_23  and  O_24 
REMARK    5  A    between atoms: C_23  and  O_25 
ROOT
ATOM      1  N           0     134.081 131.861 148.295  0.00  0.00    -0.235 N 
ATOM      2  H           0     133.283 131.344 148.104  0.00  0.00     0.174 HD
ATOM      3  H           0     134.150 132.357 149.126  0.00  0.00     0.174 HD
ATOM      4  C           0     135.062 131.886 147.437  0.00  0.00     0.672 C 
ATOM      5  N           0     135.014 131.192 146.241  0.00  0.00    -0.218 N 
ATOM      6  C           0     135.772 131.713 145.107  0.00  0.00     0.151 C 
ATOM      7  C           0     137.219 132.001 145.456  0.00  0.00     0.180 C 
ATOM      8  N           0     137.969 130.728 145.507  0.00  0.00    -0.216 N 
ATOM      9  C           0     138.842 130.804 146.565  0.00  0.00     0.670 C 
ATOM     10  N           0     139.894 130.047 146.703  0.00  0.00    -0.235 N 
ATOM     11  H           0     140.100 129.377 146.031  0.00  0.00     0.174 HD
ATOM     12  H           0     140.470 130.153 147.475  0.00  0.00     0.174 HD
ATOM     13  C           0     137.418 132.599 146.839  0.00  0.00     0.217 C 
ATOM     14  N           0     138.471 131.776 147.460  0.00  0.00    -0.191 N 
ATOM     15  N           0     136.207 132.606 147.660  0.00  0.00    -0.183 N 
ATOM     16  C           0     136.465 133.589 148.728  0.00  0.00     0.150 C 
ATOM     17  C           0     137.242 134.727 148.022  0.00  0.00     0.093 C 
ATOM     18  C           0     137.875 134.066 146.771  0.00  0.00     0.209 C 
ATOM     19  H           0     134.490 130.380 146.158  0.00  0.00     0.178 HD
ATOM     20  H           0     137.865 129.976 144.904  0.00  0.00     0.178 HD
ATOM     21  H           0     138.840 131.902 148.348  0.00  0.00     0.180 HD
ENDROOT
BRANCH   6  22
ATOM     22  C           0     135.114 133.007 144.627  0.00  0.00     0.208 C 
BRANCH  22  23
ATOM     23  O           0     134.429 132.765 143.370  0.00  0.00    -0.302 OA
BRANCH  23  24
ATOM     24  C           0     134.716 133.517 142.290  0.00  0.00     0.358 C 
ATOM     25  N           0     135.795 133.229 141.536  0.00  0.00    -0.346 N 
ATOM     26  H           0     136.366 132.479 141.771  0.00  0.00     0.161 HD
ATOM     27  H           0     136.003 133.770 140.759  0.00  0.00     0.161 HD
ATOM     28  O           0     134.002 134.455 141.996  0.00  0.00    -0.239 OA
ENDBRANCH  23  24
ENDBRANCH  22  23
ENDBRANCH   6  22
BRANCH  18  29
ATOM     29  O           0     139.300 134.154 146.830  0.00  0.00    -0.362 OA
ATOM     30  H           0     139.610 134.277 145.922  0.00  0.00     0.213 HD
ENDBRANCH  18  29
BRANCH  18  31
ATOM     31  O           0     137.385 134.684 145.579  0.00  0.00    -0.362 OA
ATOM     32  H           0     136.787 134.049 145.161  0.00  0.00     0.213 HD
ENDBRANCH  18  31
TORSDOF 5
ENDMDL
MODEL 9
REMARK VINA RESULT:      -6.6      2.400      4.252
REMARK  5 active torsions:
REMARK  status: ('A' for Active; 'I' for Inactive)
REMARK    1  A    between atoms: C_6  and  C_7 
REMARK    2  A    between atoms: C_7  and  O_8 
REMARK    3  A    between atoms: O_8  and  C_9 
REMARK       I    between atoms: C_9  and  N_10 
REMARK    4  A    between atoms: C_23  and  O_24 
REMARK    5  A    between atoms: C_23  and  O_25 
ROOT
ATOM      1  N           0     136.276 130.747 143.143  0.00  0.00    -0.235 N 
ATOM      2  H           0     135.610 130.050 143.247  0.00  0.00     0.174 HD
ATOM      3  H           0     137.035 130.608 142.554  0.00  0.00     0.174 HD
ATOM      4  C           0     136.151 131.872 143.790  0.00  0.00     0.672 C 
ATOM      5  N           0     135.084 132.119 144.637  0.00  0.00    -0.218 N 
ATOM      6  C           0     135.287 133.037 145.754  0.00  0.00     0.151 C 
ATOM      7  C           0     135.895 134.357 145.323  0.00  0.00     0.180 C 
ATOM      8  N           0     134.851 135.190 144.691  0.00  0.00    -0.216 N 
ATOM      9  C           0     135.422 135.829 143.618  0.00  0.00     0.670 C 
ATOM     10  N           0     134.930 136.895 143.053  0.00  0.00    -0.235 N 
ATOM     11  H           0     134.109 137.287 143.389  0.00  0.00     0.174 HD
ATOM     12  H           0     135.386 137.297 142.297  0.00  0.00     0.174 HD
ATOM     13  C           0     136.961 134.228 144.246  0.00  0.00     0.217 C 
ATOM     14  N           0     136.577 135.206 143.214  0.00  0.00    -0.191 N 
ATOM     15  N           0     137.068 132.883 143.680  0.00  0.00    -0.183 N 
ATOM     16  C           0     138.389 132.840 143.026  0.00  0.00     0.150 C 
ATOM     17  C           0     139.314 133.638 143.977  0.00  0.00     0.093 C 
ATOM     18  C           0     138.364 134.559 144.783  0.00  0.00     0.209 C 
ATOM     19  H           0     134.225 131.695 144.491  0.00  0.00     0.178 HD
ATOM     20  H           0     133.928 135.272 144.982  0.00  0.00     0.178 HD
ATOM     21  H           0     137.059 135.381 142.391  0.00  0.00     0.180 HD
ENDROOT
BRANCH   6  22
ATOM     22  C           0     136.216 132.375 146.774  0.00  0.00     0.208 C 
BRANCH  22  23
ATOM     23  O           0     135.587 131.177 147.297  0.00  0.00    -0.302 OA
BRANCH  23  24
ATOM     24  C           0     135.855 129.978 146.745  0.00  0.00     0.358 C 
ATOM     25  N           0     137.022 129.360 147.013  0.00  0.00    -0.346 N 
ATOM     26  H           0     137.670 129.778 147.603  0.00  0.00     0.161 HD
ATOM     27  H           0     137.216 128.497 146.615  0.00  0.00     0.161 HD
ATOM     28  O           0     135.045 129.455 146.007  0.00  0.00    -0.239 OA
ENDBRANCH  23  24
ENDBRANCH  22  23
ENDBRANCH   6  22
BRANCH  18  29
ATOM     29  O           0     138.682 135.932 144.547  0.00  0.00    -0.362 OA
ATOM     30  H           0     139.591 135.955 144.216  0.00  0.00     0.213 HD
ENDBRANCH  18  29
BRANCH  18  31
ATOM     31  O           0     138.445 134.260 146.178  0.00  0.00    -0.362 OA
ATOM     32  H           0     138.907 135.000 146.596  0.00  0.00     0.213 HD
ENDBRANCH  18  31
TORSDOF 5
ENDMDL
