# created with PyMOL 2.3.4
@<TRIPOS>MOLECULE
ligand_out_0001
32 35 1                 
SMALL
USER_CHARGES
@<TRIPOS>ATOM
1	   N	135.764	133.093	141.809	N.3	1	UNK0	-0.235	
2	   N	137.738	134.279	142.274	N.pl3	1	UNK0	-0.200	
3	   N	137.264	132.271	143.425	N.3	1	UNK0	-0.211	
4	   C	136.879	133.210	142.475	C.3	1	UNK0	0.670	
5	   C	138.353	134.900	143.459	C.2	1	UNK0	0.244	
6	   C	138.950	133.791	144.330	C.3	1	UNK0	0.101	
7	   C	137.849	132.776	144.661	C.3	1	UNK0	0.119	
8	   C	136.778	133.495	145.493	C.2	1	UNK0	0.243	
9	   C	139.501	134.373	145.631	C.2	1	UNK0	0.177	
10	   C	137.482	134.021	146.749	C.3	1	UNK0	0.311	
11	   C	140.123	133.235	146.452	C.3	1	UNK0	0.134	
12	   C	138.994	132.246	146.798	C.2	1	UNK0	0.198	
13	   C	138.435	131.649	145.511	C.2	1	UNK0	0.182	
14	   C	140.744	133.798	147.732	C.2	1	UNK0	0.207	
15	   O	138.468	134.979	146.400	O.2	1	UNK0	-0.322	
16	   O	137.982	132.941	147.518	O.2	1	UNK0	-0.319	
17	   O	141.125	132.570	145.679	O.2	1	UNK0	-0.382	
18	   O	141.086	135.171	147.531	O.2	1	UNK0	-0.398	
19	   O	137.412	130.704	145.826	O.2	1	UNK0	-0.390	
20	   O	139.386	135.800	143.051	O.2	1	UNK0	-0.376	
21	   O	136.501	134.681	147.552	O.2	1	UNK0	-0.341	
22	   O	136.227	134.582	144.747	O.2	1	UNK0	-0.385	
23	   H	135.518	133.766	141.154	 H	1	UNK0	0.174	
24	   H	135.183	132.333	141.967	 H	1	UNK0	0.174	
25	   H	137.930	134.606	141.381	 H	1	UNK0	0.180	
26	   H	137.151	131.321	143.268	 H	1	UNK0	0.178	
27	   H	141.958	133.033	145.843	 H	1	UNK0	0.210	
28	   H	141.351	135.259	146.605	 H	1	UNK0	0.209	
29	   H	137.006	130.443	144.988	 H	1	UNK0	0.210	
30	   H	139.025	136.695	143.134	 H	1	UNK0	0.212	
31	   H	136.400	134.156	148.357	 H	1	UNK0	0.215	
32	   H	136.759	134.669	143.944	 H	1	UNK0	0.210	
@<TRIPOS>BOND
1 1 4 1
2 1 23 1
3 1 24 1
4 2 5 1
5 2 25 1
6 3 26 1
7 2 4 1
8 3 4 1
9 5 6 1
10 5 20 2
11 6 7 1
12 6 9 1
13 3 7 1
14 7 8 1
15 7 13 1
16 8 10 1
17 8 22 2
18 9 11 1
19 9 15 2
20 10 16 2
21 10 21 2
22 11 12 1
23 11 14 1
24 11 17 2
25 12 13 1
26 13 19 2
27 14 18 2
28 10 15 2
29 12 16 2
30 17 27 1
31 18 28 1
32 19 29 1
33 20 30 1
34 21 31 1
35 22 32 1
@<TRIPOS>SUBSTRUCTURE
1	UNK0	1	GROUP	1 ****	UNK
