MODEL 1
REMARK VINA RESULT:      -7.7      0.000      0.000
REMARK  7 active torsions:
REMARK  status: ('A' for Active; 'I' for Inactive)
REMARK    1  A    between atoms: C_6  and  O_7 
REMARK    2  A    between atoms: C_10  and  O_11 
REMARK    3  A    between atoms: C_15  and  O_16 
REMARK    4  A    between atoms: C_18  and  O_19 
REMARK    5  A    between atoms: C_18  and  C_20 
REMARK    6  A    between atoms: C_20  and  O_21 
REMARK    7  A    between atoms: C_23  and  O_24 
ROOT
ATOM      1  N           0     135.764 133.093 141.809  0.00  0.00    -0.235 N 
ATOM      2  H           0     135.518 133.766 141.154  0.00  0.00     0.174 HD
ATOM      3  H           0     135.183 132.333 141.967  0.00  0.00     0.174 HD
ATOM      4  C           0     136.879 133.210 142.475  0.00  0.00     0.670 C 
ATOM      5  N           0     137.738 134.279 142.274  0.00  0.00    -0.200 N 
ATOM      6  C           0     138.353 134.900 143.459  0.00  0.00     0.244 C 
ATOM      7  C           0     138.950 133.791 144.330  0.00  0.00     0.101 C 
ATOM      8  C           0     137.849 132.776 144.661  0.00  0.00     0.119 C 
ATOM      9  C           0     136.778 133.495 145.493  0.00  0.00     0.243 C 
ATOM     10  N           0     137.264 132.271 143.425  0.00  0.00    -0.211 N 
ATOM     11  C           0     139.501 134.373 145.631  0.00  0.00     0.177 C 
ATOM     12  O           0     138.468 134.979 146.400  0.00  0.00    -0.322 OA
ATOM     13  C           0     137.482 134.021 146.749  0.00  0.00     0.311 C 
ATOM     14  O           0     137.982 132.941 147.518  0.00  0.00    -0.319 OA
ATOM     15  C           0     140.123 133.235 146.452  0.00  0.00     0.134 C 
ATOM     16  C           0     138.994 132.246 146.798  0.00  0.00     0.198 C 
ATOM     17  C           0     138.435 131.649 145.511  0.00  0.00     0.182 C 
ATOM     18  H           0     137.930 134.606 141.381  0.00  0.00     0.180 HD
ATOM     19  H           0     137.151 131.321 143.268  0.00  0.00     0.178 HD
ENDROOT
BRANCH  15  20
ATOM     20  O           0     141.125 132.570 145.679  0.00  0.00    -0.382 OA
ATOM     21  H           0     141.958 133.033 145.843  0.00  0.00     0.210 HD
ENDBRANCH  15  20
BRANCH  15  22
ATOM     22  C           0     140.744 133.798 147.732  0.00  0.00     0.207 C 
BRANCH  22  23
ATOM     23  O           0     141.086 135.171 147.531  0.00  0.00    -0.398 OA
ATOM     24  H           0     141.351 135.259 146.605  0.00  0.00     0.209 HD
ENDBRANCH  22  23
ENDBRANCH  15  22
BRANCH  17  25
ATOM     25  O           0     137.412 130.704 145.826  0.00  0.00    -0.390 OA
ATOM     26  H           0     137.006 130.443 144.988  0.00  0.00     0.210 HD
ENDBRANCH  17  25
BRANCH   6  27
ATOM     27  O           0     139.386 135.800 143.051  0.00  0.00    -0.376 OA
ATOM     28  H           0     139.025 136.695 143.134  0.00  0.00     0.212 HD
ENDBRANCH   6  27
BRANCH  13  29
ATOM     29  O           0     136.501 134.681 147.552  0.00  0.00    -0.341 OA
ATOM     30  H           0     136.400 134.156 148.357  0.00  0.00     0.215 HD
ENDBRANCH  13  29
BRANCH   9  31
ATOM     31  O           0     136.227 134.582 144.747  0.00  0.00    -0.385 OA
ATOM     32  H           0     136.759 134.669 143.944  0.00  0.00     0.210 HD
ENDBRANCH   9  31
TORSDOF 7
ENDMDL
MODEL 2
REMARK VINA RESULT:      -7.7      2.619      4.626
REMARK  7 active torsions:
REMARK  status: ('A' for Active; 'I' for Inactive)
REMARK    1  A    between atoms: C_6  and  O_7 
REMARK    2  A    between atoms: C_10  and  O_11 
REMARK    3  A    between atoms: C_15  and  O_16 
REMARK    4  A    between atoms: C_18  and  O_19 
REMARK    5  A    between atoms: C_18  and  C_20 
REMARK    6  A    between atoms: C_20  and  O_21 
REMARK    7  A    between atoms: C_23  and  O_24 
ROOT
ATOM      1  N           0     133.425 134.768 140.241  0.00  0.00    -0.235 N 
ATOM      2  H           0     132.954 134.259 139.562  0.00  0.00     0.174 HD
ATOM      3  H           0     133.694 135.683 140.062  0.00  0.00     0.174 HD
ATOM      4  C           0     133.692 134.224 141.395  0.00  0.00     0.670 C 
ATOM      5  N           0     133.319 132.922 141.689  0.00  0.00    -0.200 N 
ATOM      6  C           0     134.287 132.073 142.404  0.00  0.00     0.244 C 
ATOM      7  C           0     134.804 132.849 143.619  0.00  0.00     0.101 C 
ATOM      8  C           0     135.384 134.186 143.140  0.00  0.00     0.119 C 
ATOM      9  C           0     136.587 133.882 142.235  0.00  0.00     0.243 C 
ATOM     10  N           0     134.370 134.918 142.390  0.00  0.00    -0.211 N 
ATOM     11  C           0     135.898 132.056 144.333  0.00  0.00     0.177 C 
ATOM     12  O           0     137.017 131.846 143.480  0.00  0.00    -0.322 OA
ATOM     13  C           0     137.583 133.086 143.087  0.00  0.00     0.311 C 
ATOM     14  O           0     138.039 133.875 144.171  0.00  0.00    -0.319 OA
ATOM     15  C           0     136.357 132.853 145.562  0.00  0.00     0.134 C 
ATOM     16  C           0     136.963 134.175 145.055  0.00  0.00     0.198 C 
ATOM     17  C           0     135.884 134.984 144.344  0.00  0.00     0.182 C 
ATOM     18  H           0     132.448 132.581 141.433  0.00  0.00     0.180 HD
ATOM     19  H           0     134.171 135.848 142.580  0.00  0.00     0.178 HD
ENDROOT
BRANCH  15  20
ATOM     20  O           0     135.238 133.130 146.406  0.00  0.00    -0.382 OA
ATOM     21  H           0     134.540 133.484 145.839  0.00  0.00     0.210 HD
ENDBRANCH  15  20
BRANCH  15  22
ATOM     22  C           0     137.406 132.053 146.336  0.00  0.00     0.207 C 
BRANCH  22  23
ATOM     23  O           0     137.371 130.689 145.913  0.00  0.00    -0.398 OA
ATOM     24  H           0     136.940 130.188 146.618  0.00  0.00     0.209 HD
ENDBRANCH  22  23
ENDBRANCH  15  22
BRANCH  17  25
ATOM     25  O           0     136.430 136.227 143.902  0.00  0.00    -0.390 OA
ATOM     26  H           0     135.918 136.926 144.333  0.00  0.00     0.210 HD
ENDBRANCH  17  25
BRANCH   6  27
ATOM     27  O           0     133.645 130.871 142.839  0.00  0.00    -0.376 OA
ATOM     28  H           0     134.077 130.607 143.664  0.00  0.00     0.212 HD
ENDBRANCH   6  27
BRANCH  13  29
ATOM     29  O           0     138.722 132.804 142.272  0.00  0.00    -0.341 OA
ATOM     30  H           0     139.116 133.656 142.038  0.00  0.00     0.215 HD
ENDBRANCH  13  29
BRANCH   9  31
ATOM     31  O           0     136.169 133.104 141.111  0.00  0.00    -0.385 OA
ATOM     32  H           0     135.466 132.518 141.422  0.00  0.00     0.210 HD
ENDBRANCH   9  31
TORSDOF 7
ENDMDL
MODEL 3
REMARK VINA RESULT:      -7.6      2.156      3.975
REMARK  7 active torsions:
REMARK  status: ('A' for Active; 'I' for Inactive)
REMARK    1  A    between atoms: C_6  and  O_7 
REMARK    2  A    between atoms: C_10  and  O_11 
REMARK    3  A    between atoms: C_15  and  O_16 
REMARK    4  A    between atoms: C_18  and  O_19 
REMARK    5  A    between atoms: C_18  and  C_20 
REMARK    6  A    between atoms: C_20  and  O_21 
REMARK    7  A    between atoms: C_23  and  O_24 
ROOT
ATOM      1  N           0     134.352 136.242 142.169  0.00  0.00    -0.235 N 
ATOM      2  H           0     133.617 136.002 141.583  0.00  0.00     0.174 HD
ATOM      3  H           0     134.789 137.103 142.071  0.00  0.00     0.174 HD
ATOM      4  C           0     134.750 135.410 143.089  0.00  0.00     0.670 C 
ATOM      5  N           0     134.148 134.174 143.262  0.00  0.00    -0.200 N 
ATOM      6  C           0     135.019 133.013 143.516  0.00  0.00     0.244 C 
ATOM      7  C           0     135.996 133.379 144.637  0.00  0.00     0.101 C 
ATOM      8  C           0     136.755 134.650 144.235  0.00  0.00     0.119 C 
ATOM      9  C           0     137.583 134.329 142.983  0.00  0.00     0.243 C 
ATOM     10  N           0     135.803 135.715 143.944  0.00  0.00    -0.211 N 
ATOM     11  C           0     136.998 132.248 144.862  0.00  0.00     0.177 C 
ATOM     12  O           0     137.784 132.021 143.697  0.00  0.00    -0.322 OA
ATOM     13  C           0     138.526 133.183 143.365  0.00  0.00     0.311 C 
ATOM     14  O           0     139.417 133.603 144.383  0.00  0.00    -0.319 OA
ATOM     15  C           0     137.930 132.641 146.017  0.00  0.00     0.134 C 
ATOM     16  C           0     138.702 133.899 145.578  0.00  0.00     0.198 C 
ATOM     17  C           0     137.719 135.042 145.355  0.00  0.00     0.182 C 
ATOM     18  H           0     133.184 134.076 143.220  0.00  0.00     0.180 HD
ATOM     19  H           0     135.896 136.599 144.332  0.00  0.00     0.178 HD
ENDROOT
BRANCH  15  20
ATOM     20  O           0     137.158 132.933 147.184  0.00  0.00    -0.382 OA
ATOM     21  H           0     137.694 132.672 147.946  0.00  0.00     0.210 HD
ENDBRANCH  15  20
BRANCH  15  22
ATOM     22  C           0     138.903 131.497 146.310  0.00  0.00     0.207 C 
BRANCH  22  23
ATOM     23  O           0     138.223 130.248 146.176  0.00  0.00    -0.398 OA
ATOM     24  H           0     137.354 130.442 145.798  0.00  0.00     0.209 HD
ENDBRANCH  22  23
ENDBRANCH  15  22
BRANCH  17  25
ATOM     25  O           0     138.432 136.222 144.982  0.00  0.00    -0.390 OA
ATOM     26  H           0     138.879 136.541 145.779  0.00  0.00     0.210 HD
ENDBRANCH  17  25
BRANCH   6  27
ATOM     27  O           0     134.225 131.893 143.916  0.00  0.00    -0.376 OA
ATOM     28  H           0     134.515 131.140 143.381  0.00  0.00     0.212 HD
ENDBRANCH   6  27
BRANCH  13  29
ATOM     29  O           0     139.323 132.876 142.219  0.00  0.00    -0.341 OA
ATOM     30  H           0     138.723 132.849 141.462  0.00  0.00     0.215 HD
ENDBRANCH  13  29
BRANCH   9  31
ATOM     31  O           0     136.721 133.922 141.917  0.00  0.00    -0.385 OA
ATOM     32  H           0     135.864 134.339 142.076  0.00  0.00     0.210 HD
ENDBRANCH   9  31
TORSDOF 7
ENDMDL
MODEL 4
REMARK VINA RESULT:      -7.3      2.523      4.422
REMARK  7 active torsions:
REMARK  status: ('A' for Active; 'I' for Inactive)
REMARK    1  A    between atoms: C_6  and  O_7 
REMARK    2  A    between atoms: C_10  and  O_11 
REMARK    3  A    between atoms: C_15  and  O_16 
REMARK    4  A    between atoms: C_18  and  O_19 
REMARK    5  A    between atoms: C_18  and  C_20 
REMARK    6  A    between atoms: C_20  and  O_21 
REMARK    7  A    between atoms: C_23  and  O_24 
ROOT
ATOM      1  N           0     134.766 136.666 142.684  0.00  0.00    -0.235 N 
ATOM      2  H           0     134.420 136.777 141.785  0.00  0.00     0.174 HD
ATOM      3  H           0     135.199 137.408 143.134  0.00  0.00     0.174 HD
ATOM      4  C           0     134.648 135.517 143.290  0.00  0.00     0.670 C 
ATOM      5  N           0     134.032 134.434 142.683  0.00  0.00    -0.200 N 
ATOM      6  C           0     134.654 133.109 142.845  0.00  0.00     0.244 C 
ATOM      7  C           0     134.944 132.892 144.333  0.00  0.00     0.101 C 
ATOM      8  C           0     135.810 134.051 144.842  0.00  0.00     0.119 C 
ATOM      9  C           0     137.149 134.002 144.095  0.00  0.00     0.243 C 
ATOM     10  N           0     135.136 135.316 144.576  0.00  0.00    -0.211 N 
ATOM     11  C           0     135.693 131.577 144.544  0.00  0.00     0.177 C 
ATOM     12  O           0     136.954 131.595 143.884  0.00  0.00    -0.322 OA
ATOM     13  C           0     137.770 132.634 144.400  0.00  0.00     0.311 C 
ATOM     14  O           0     138.037 132.517 145.786  0.00  0.00    -0.319 OA
ATOM     15  C           0     135.927 131.382 146.049  0.00  0.00     0.134 C 
ATOM     16  C           0     136.823 132.539 146.530  0.00  0.00     0.198 C 
ATOM     17  C           0     136.088 133.860 146.333  0.00  0.00     0.182 C 
ATOM     18  H           0     133.218 134.545 142.168  0.00  0.00     0.180 HD
ATOM     19  H           0     135.028 135.988 145.266  0.00  0.00     0.178 HD
ENDROOT
BRANCH  15  20
ATOM     20  O           0     134.678 131.421 146.742  0.00  0.00    -0.382 OA
ATOM     21  H           0     134.796 132.011 147.499  0.00  0.00     0.210 HD
ENDBRANCH  15  20
BRANCH  15  22
ATOM     22  C           0     136.617 130.039 146.297  0.00  0.00     0.207 C 
BRANCH  22  23
ATOM     23  O           0     135.640 128.997 146.311  0.00  0.00    -0.398 OA
ATOM     24  H           0     135.187 129.050 147.164  0.00  0.00     0.209 HD
ENDBRANCH  22  23
ENDBRANCH  15  22
BRANCH  17  25
ATOM     25  O           0     136.899 134.935 146.810  0.00  0.00    -0.390 OA
ATOM     26  H           0     137.472 134.568 147.497  0.00  0.00     0.210 HD
ENDBRANCH  17  25
BRANCH   6  27
ATOM     27  O           0     133.760 132.097 142.376  0.00  0.00    -0.376 OA
ATOM     28  H           0     133.979 131.939 141.446  0.00  0.00     0.212 HD
ENDBRANCH   6  27
BRANCH  13  29
ATOM     29  O           0     139.030 132.569 143.729  0.00  0.00    -0.341 OA
ATOM     30  H           0     139.153 133.419 143.285  0.00  0.00     0.215 HD
ENDBRANCH  13  29
BRANCH   9  31
ATOM     31  O           0     136.932 134.141 142.689  0.00  0.00    -0.385 OA
ATOM     32  H           0     136.865 135.088 142.508  0.00  0.00     0.210 HD
ENDBRANCH   9  31
TORSDOF 7
ENDMDL
MODEL 5
REMARK VINA RESULT:      -7.1      1.741      3.697
REMARK  7 active torsions:
REMARK  status: ('A' for Active; 'I' for Inactive)
REMARK    1  A    between atoms: C_6  and  O_7 
REMARK    2  A    between atoms: C_10  and  O_11 
REMARK    3  A    between atoms: C_15  and  O_16 
REMARK    4  A    between atoms: C_18  and  O_19 
REMARK    5  A    between atoms: C_18  and  C_20 
REMARK    6  A    between atoms: C_20  and  O_21 
REMARK    7  A    between atoms: C_23  and  O_24 
ROOT
ATOM      1  N           0     135.217 133.417 140.649  0.00  0.00    -0.235 N 
ATOM      2  H           0     134.912 132.674 140.105  0.00  0.00     0.174 HD
ATOM      3  H           0     135.397 134.277 140.239  0.00  0.00     0.174 HD
ATOM      4  C           0     135.381 133.260 141.933  0.00  0.00     0.670 C 
ATOM      5  N           0     135.129 132.047 142.555  0.00  0.00    -0.200 N 
ATOM      6  C           0     136.082 131.591 143.583  0.00  0.00     0.244 C 
ATOM      7  C           0     136.323 132.742 144.562  0.00  0.00     0.101 C 
ATOM      8  C           0     136.800 133.969 143.775  0.00  0.00     0.119 C 
ATOM      9  C           0     138.147 133.620 143.126  0.00  0.00     0.243 C 
ATOM     10  N           0     135.821 134.298 142.745  0.00  0.00    -0.211 N 
ATOM     11  C           0     137.392 132.358 145.585  0.00  0.00     0.177 C 
ATOM     12  O           0     138.639 132.099 144.949  0.00  0.00    -0.322 OA
ATOM     13  C           0     139.100 133.255 144.270  0.00  0.00     0.311 C 
ATOM     14  O           0     139.299 134.373 145.116  0.00  0.00    -0.319 OA
ATOM     15  C           0     137.572 133.524 146.567  0.00  0.00     0.134 C 
ATOM     16  C           0     138.080 134.733 145.759  0.00  0.00     0.198 C 
ATOM     17  C           0     137.023 135.135 144.737  0.00  0.00     0.182 C 
ATOM     18  H           0     134.351 131.518 142.324  0.00  0.00     0.180 HD
ATOM     19  H           0     135.487 135.201 142.633  0.00  0.00     0.178 HD
ENDROOT
BRANCH  15  20
ATOM     20  O           0     136.319 133.844 147.175  0.00  0.00    -0.382 OA
ATOM     21  H           0     135.794 134.305 146.507  0.00  0.00     0.210 HD
ENDBRANCH  15  20
BRANCH  15  22
ATOM     22  C           0     138.590 133.142 147.644  0.00  0.00     0.207 C 
BRANCH  22  23
ATOM     23  O           0     138.649 131.719 147.758  0.00  0.00    -0.398 OA
ATOM     24  H           0     137.752 131.389 147.614  0.00  0.00     0.209 HD
ENDBRANCH  22  23
ENDBRANCH  15  22
BRANCH  17  25
ATOM     25  O           0     137.472 136.279 144.008  0.00  0.00    -0.390 OA
ATOM     26  H           0     136.905 137.017 144.270  0.00  0.00     0.210 HD
ENDBRANCH  17  25
BRANCH   6  27
ATOM     27  O           0     135.535 130.470 144.282  0.00  0.00    -0.376 OA
ATOM     28  H           0     136.219 129.786 144.292  0.00  0.00     0.212 HD
ENDBRANCH   6  27
BRANCH  13  29
ATOM     29  O           0     140.369 132.942 143.693  0.00  0.00    -0.341 OA
ATOM     30  H           0     140.371 133.316 142.802  0.00  0.00     0.215 HD
ENDBRANCH  13  29
BRANCH   9  31
ATOM     31  O           0     137.990 132.507 142.243  0.00  0.00    -0.385 OA
ATOM     32  H           0     138.028 132.857 141.342  0.00  0.00     0.210 HD
ENDBRANCH   9  31
TORSDOF 7
ENDMDL
MODEL 6
REMARK VINA RESULT:      -7.0      1.685      2.726
REMARK  7 active torsions:
REMARK  status: ('A' for Active; 'I' for Inactive)
REMARK    1  A    between atoms: C_6  and  O_7 
REMARK    2  A    between atoms: C_10  and  O_11 
REMARK    3  A    between atoms: C_15  and  O_16 
REMARK    4  A    between atoms: C_18  and  O_19 
REMARK    5  A    between atoms: C_18  and  C_20 
REMARK    6  A    between atoms: C_20  and  O_21 
REMARK    7  A    between atoms: C_23  and  O_24 
ROOT
ATOM      1  N           0     135.496 136.237 143.380  0.00  0.00    -0.235 N 
ATOM      2  H           0     135.640 136.665 142.521  0.00  0.00     0.174 HD
ATOM      3  H           0     134.907 136.645 144.034  0.00  0.00     0.174 HD
ATOM      4  C           0     136.092 135.111 143.655  0.00  0.00     0.670 C 
ATOM      5  N           0     136.937 134.494 142.745  0.00  0.00    -0.200 N 
ATOM      6  C           0     138.188 133.907 143.256  0.00  0.00     0.244 C 
ATOM      7  C           0     137.852 133.033 144.468  0.00  0.00     0.101 C 
ATOM      8  C           0     137.099 133.885 145.498  0.00  0.00     0.119 C 
ATOM      9  C           0     138.045 134.996 145.974  0.00  0.00     0.243 C 
ATOM     10  N           0     135.917 134.470 144.876  0.00  0.00    -0.211 N 
ATOM     11  C           0     139.130 132.491 145.105  0.00  0.00     0.177 C 
ATOM     12  O           0     139.951 133.549 145.586  0.00  0.00    -0.322 OA
ATOM     13  C           0     139.268 134.297 146.578  0.00  0.00     0.311 C 
ATOM     14  O           0     138.886 133.533 147.708  0.00  0.00    -0.319 OA
ATOM     15  C           0     138.743 131.591 146.288  0.00  0.00     0.134 C 
ATOM     16  C           0     138.017 132.474 147.321  0.00  0.00     0.198 C 
ATOM     17  C           0     136.735 133.020 146.704  0.00  0.00     0.182 C 
ATOM     18  H           0     136.711 134.448 141.804  0.00  0.00     0.180 HD
ATOM     19  H           0     135.043 134.412 145.292  0.00  0.00     0.178 HD
ENDROOT
BRANCH  15  20
ATOM     20  O           0     137.868 130.554 145.842  0.00  0.00    -0.382 OA
ATOM     21  H           0     137.362 130.263 146.613  0.00  0.00     0.210 HD
ENDBRANCH  15  20
BRANCH  15  22
ATOM     22  C           0     140.002 130.979 146.907  0.00  0.00     0.207 C 
BRANCH  22  23
ATOM     23  O           0     139.848 129.561 146.992  0.00  0.00    -0.398 OA
ATOM     24  H           0     138.915 129.370 146.824  0.00  0.00     0.209 HD
ENDBRANCH  22  23
ENDBRANCH  15  22
BRANCH  17  25
ATOM     25  O           0     136.038 133.811 147.668  0.00  0.00    -0.390 OA
ATOM     26  H           0     135.861 133.235 148.425  0.00  0.00     0.210 HD
ENDBRANCH  17  25
BRANCH   6  27
ATOM     27  O           0     138.795 133.107 142.239  0.00  0.00    -0.376 OA
ATOM     28  H           0     138.192 132.370 142.066  0.00  0.00     0.212 HD
ENDBRANCH   6  27
BRANCH  13  29
ATOM     29  O           0     140.160 135.311 147.046  0.00  0.00    -0.341 OA
ATOM     30  H           0     140.710 135.568 146.295  0.00  0.00     0.215 HD
ENDBRANCH  13  29
BRANCH   9  31
ATOM     31  O           0     138.440 135.810 144.867  0.00  0.00    -0.385 OA
ATOM     32  H           0     137.758 136.486 144.759  0.00  0.00     0.210 HD
ENDBRANCH   9  31
TORSDOF 7
ENDMDL
MODEL 7
REMARK VINA RESULT:      -6.7      2.088      3.034
REMARK  7 active torsions:
REMARK  status: ('A' for Active; 'I' for Inactive)
REMARK    1  A    between atoms: C_6  and  O_7 
REMARK    2  A    between atoms: C_10  and  O_11 
REMARK    3  A    between atoms: C_15  and  O_16 
REMARK    4  A    between atoms: C_18  and  O_19 
REMARK    5  A    between atoms: C_18  and  C_20 
REMARK    6  A    between atoms: C_20  and  O_21 
REMARK    7  A    between atoms: C_23  and  O_24 
ROOT
ATOM      1  N           0     132.974 133.218 140.912  0.00  0.00    -0.235 N 
ATOM      2  H           0     132.249 133.834 140.723  0.00  0.00     0.174 HD
ATOM      3  H           0     132.903 132.288 140.645  0.00  0.00     0.174 HD
ATOM      4  C           0     134.046 133.640 141.522  0.00  0.00     0.670 C 
ATOM      5  N           0     134.186 134.962 141.914  0.00  0.00    -0.200 N 
ATOM      6  C           0     134.770 135.228 143.241  0.00  0.00     0.244 C 
ATOM      7  C           0     136.059 134.411 143.373  0.00  0.00     0.101 C 
ATOM      8  C           0     135.734 132.932 143.122  0.00  0.00     0.119 C 
ATOM      9  C           0     134.772 132.467 144.223  0.00  0.00     0.243 C 
ATOM     10  N           0     135.104 132.787 141.815  0.00  0.00    -0.211 N 
ATOM     11  C           0     136.645 134.563 144.776  0.00  0.00     0.177 C 
ATOM     12  O           0     135.747 134.066 145.762  0.00  0.00    -0.322 OA
ATOM     13  C           0     135.497 132.685 145.556  0.00  0.00     0.311 C 
ATOM     14  O           0     136.659 131.878 145.619  0.00  0.00    -0.319 OA
ATOM     15  C           0     137.952 133.761 144.850  0.00  0.00     0.134 C 
ATOM     16  C           0     137.597 132.279 144.626  0.00  0.00     0.198 C 
ATOM     17  C           0     137.016 132.106 143.227  0.00  0.00     0.182 C 
ATOM     18  H           0     133.911 135.688 141.335  0.00  0.00     0.180 HD
ATOM     19  H           0     135.410 132.127 141.174  0.00  0.00     0.178 HD
ENDROOT
BRANCH  15  20
ATOM     20  O           0     138.849 134.200 143.828  0.00  0.00    -0.382 OA
ATOM     21  H           0     139.472 133.478 143.673  0.00  0.00     0.210 HD
ENDBRANCH  15  20
BRANCH  15  22
ATOM     22  C           0     138.598 133.948 146.224  0.00  0.00     0.207 C 
BRANCH  22  23
ATOM     23  O           0     138.118 135.157 146.814  0.00  0.00    -0.398 OA
ATOM     24  H           0     138.649 135.877 146.449  0.00  0.00     0.209 HD
ENDBRANCH  22  23
ENDBRANCH  15  22
BRANCH  17  25
ATOM     25  O           0     136.717 130.728 142.999  0.00  0.00    -0.390 OA
ATOM     26  H           0     135.885 130.544 143.455  0.00  0.00     0.210 HD
ENDBRANCH  17  25
BRANCH   6  27
ATOM     27  O           0     135.068 136.620 143.366  0.00  0.00    -0.376 OA
ATOM     28  H           0     134.384 137.003 143.933  0.00  0.00     0.212 HD
ENDBRANCH   6  27
BRANCH  13  29
ATOM     29  O           0     134.628 132.242 146.600  0.00  0.00    -0.341 OA
ATOM     30  H           0     134.223 133.032 146.982  0.00  0.00     0.215 HD
ENDBRANCH  13  29
BRANCH   9  31
ATOM     31  O           0     133.571 133.240 144.184  0.00  0.00    -0.385 OA
ATOM     32  H           0     133.118 133.012 143.361  0.00  0.00     0.210 HD
ENDBRANCH   9  31
TORSDOF 7
ENDMDL
MODEL 8
REMARK VINA RESULT:      -6.5     11.866     13.486
REMARK  7 active torsions:
REMARK  status: ('A' for Active; 'I' for Inactive)
REMARK    1  A    between atoms: C_6  and  O_7 
REMARK    2  A    between atoms: C_10  and  O_11 
REMARK    3  A    between atoms: C_15  and  O_16 
REMARK    4  A    between atoms: C_18  and  O_19 
REMARK    5  A    between atoms: C_18  and  C_20 
REMARK    6  A    between atoms: C_20  and  O_21 
REMARK    7  A    between atoms: C_23  and  O_24 
ROOT
ATOM      1  N           0     129.891 131.662 136.695  0.00  0.00    -0.235 N 
ATOM      2  H           0     129.639 130.742 136.517  0.00  0.00     0.174 HD
ATOM      3  H           0     129.415 132.174 137.367  0.00  0.00     0.174 HD
ATOM      4  C           0     130.872 132.208 136.032  0.00  0.00     0.670 C 
ATOM      5  N           0     131.578 131.507 135.068  0.00  0.00    -0.200 N 
ATOM      6  C           0     131.921 132.209 133.819  0.00  0.00     0.244 C 
ATOM      7  C           0     132.553 133.556 134.181  0.00  0.00     0.101 C 
ATOM      8  C           0     131.584 134.330 135.083  0.00  0.00     0.119 C 
ATOM      9  C           0     130.312 134.615 134.273  0.00  0.00     0.243 C 
ATOM     10  N           0     131.259 133.525 136.254  0.00  0.00    -0.211 N 
ATOM     11  C           0     132.824 134.374 132.919  0.00  0.00     0.177 C 
ATOM     12  O           0     131.614 134.667 132.229  0.00  0.00    -0.322 OA
ATOM     13  C           0     130.747 135.431 133.050  0.00  0.00     0.311 C 
ATOM     14  O           0     131.293 136.672 133.460  0.00  0.00    -0.319 OA
ATOM     15  C           0     133.492 135.695 133.326  0.00  0.00     0.134 C 
ATOM     16  C           0     132.489 136.467 134.204  0.00  0.00     0.198 C 
ATOM     17  C           0     132.211 135.668 135.472  0.00  0.00     0.182 C 
ATOM     18  H           0     131.840 130.584 135.212  0.00  0.00     0.180 HD
ATOM     19  H           0     131.315 133.888 137.152  0.00  0.00     0.178 HD
ENDROOT
BRANCH  15  20
ATOM     20  O           0     134.680 135.428 134.074  0.00  0.00    -0.382 OA
ATOM     21  H           0     134.618 134.513 134.379  0.00  0.00     0.210 HD
ENDBRANCH  15  20
BRANCH  15  22
ATOM     22  C           0     133.837 136.508 132.077  0.00  0.00     0.207 C 
BRANCH  22  23
ATOM     23  O           0     133.669 137.900 132.354  0.00  0.00    -0.398 OA
ATOM     24  H           0     132.740 138.027 132.590  0.00  0.00     0.209 HD
ENDBRANCH  22  23
ENDBRANCH  15  22
BRANCH  17  25
ATOM     25  O           0     131.309 136.395 136.309  0.00  0.00    -0.390 OA
ATOM     26  H           0     130.415 136.157 136.028  0.00  0.00     0.210 HD
ENDBRANCH  17  25
BRANCH   6  27
ATOM     27  O           0     132.852 131.427 133.067  0.00  0.00    -0.376 OA
ATOM     28  H           0     133.591 131.226 133.659  0.00  0.00     0.212 HD
ENDBRANCH   6  27
BRANCH  13  29
ATOM     29  O           0     129.575 135.726 132.287  0.00  0.00    -0.341 OA
ATOM     30  H           0     129.250 136.583 132.595  0.00  0.00     0.215 HD
ENDBRANCH  13  29
BRANCH   9  31
ATOM     31  O           0     129.710 133.387 133.857  0.00  0.00    -0.385 OA
ATOM     32  H           0     130.352 132.687 134.035  0.00  0.00     0.210 HD
ENDBRANCH   9  31
TORSDOF 7
ENDMDL
MODEL 9
REMARK VINA RESULT:      -6.5      2.559      4.668
REMARK  7 active torsions:
REMARK  status: ('A' for Active; 'I' for Inactive)
REMARK    1  A    between atoms: C_6  and  O_7 
REMARK    2  A    between atoms: C_10  and  O_11 
REMARK    3  A    between atoms: C_15  and  O_16 
REMARK    4  A    between atoms: C_18  and  O_19 
REMARK    5  A    between atoms: C_18  and  C_20 
REMARK    6  A    between atoms: C_20  and  O_21 
REMARK    7  A    between atoms: C_23  and  O_24 
ROOT
ATOM      1  N           0     136.815 134.674 142.895  0.00  0.00    -0.235 N 
ATOM      2  H           0     136.684 134.499 141.949  0.00  0.00     0.174 HD
ATOM      3  H           0     137.439 135.359 143.180  0.00  0.00     0.174 HD
ATOM      4  C           0     136.150 133.989 143.782  0.00  0.00     0.670 C 
ATOM      5  N           0     135.246 133.005 143.413  0.00  0.00    -0.200 N 
ATOM      6  C           0     135.242 131.750 144.185  0.00  0.00     0.244 C 
ATOM      7  C           0     135.191 132.100 145.675  0.00  0.00     0.101 C 
ATOM      8  C           0     136.366 133.029 146.005  0.00  0.00     0.119 C 
ATOM      9  C           0     137.666 132.252 145.754  0.00  0.00     0.243 C 
ATOM     10  N           0     136.314 134.205 145.145  0.00  0.00    -0.211 N 
ATOM     11  C           0     135.299 130.834 146.524  0.00  0.00     0.177 C 
ATOM     12  O           0     136.542 130.176 146.305  0.00  0.00    -0.322 OA
ATOM     13  C           0     137.622 131.021 146.666  0.00  0.00     0.311 C 
ATOM     14  O           0     137.606 131.421 148.025  0.00  0.00    -0.319 OA
ATOM     15  C           0     135.204 131.228 148.005  0.00  0.00     0.134 C 
ATOM     16  C           0     136.409 132.134 148.320  0.00  0.00     0.198 C 
ATOM     17  C           0     136.315 133.406 147.485  0.00  0.00     0.182 C 
ATOM     18  H           0     134.634 133.139 142.673  0.00  0.00     0.180 HD
ATOM     19  H           0     136.386 135.102 145.507  0.00  0.00     0.178 HD
ENDROOT
BRANCH  15  20
ATOM     20  O           0     133.990 131.945 148.239  0.00  0.00    -0.382 OA
ATOM     21  H           0     133.569 132.071 147.377  0.00  0.00     0.210 HD
ENDBRANCH  15  20
BRANCH  15  22
ATOM     22  C           0     135.242 129.973 148.879  0.00  0.00     0.207 C 
BRANCH  22  23
ATOM     23  O           0     134.730 128.863 148.140  0.00  0.00    -0.398 OA
ATOM     24  H           0     133.912 128.589 148.577  0.00  0.00     0.209 HD
ENDBRANCH  22  23
ENDBRANCH  15  22
BRANCH  17  25
ATOM     25  O           0     137.411 134.267 147.798  0.00  0.00    -0.390 OA
ATOM     26  H           0     137.987 133.777 148.401  0.00  0.00     0.210 HD
ENDBRANCH  17  25
BRANCH   6  27
ATOM     27  O           0     134.095 130.972 143.833  0.00  0.00    -0.376 OA
ATOM     28  H           0     133.478 131.032 144.577  0.00  0.00     0.212 HD
ENDBRANCH   6  27
BRANCH  13  29
ATOM     29  O           0     138.832 130.288 146.465  0.00  0.00    -0.341 OA
ATOM     30  H           0     138.899 129.654 147.191  0.00  0.00     0.215 HD
ENDBRANCH  13  29
BRANCH   9  31
ATOM     31  O           0     137.738 131.847 144.385  0.00  0.00    -0.385 OA
ATOM     32  H           0     138.539 131.314 144.292  0.00  0.00     0.210 HD
ENDBRANCH   9  31
TORSDOF 7
ENDMDL
