MODEL 1
REMARK VINA RESULT:      -7.9      0.000      0.000
REMARK  5 active torsions:
REMARK  status: ('A' for Active; 'I' for Inactive)
REMARK    1  A    between atoms: C_6  and  C_7 
REMARK    2  A    between atoms: C_7  and  O_8 
REMARK    3  A    between atoms: O_8  and  C_9 
REMARK       I    between atoms: C_9  and  N_10 
REMARK    4  A    between atoms: C_23  and  O_24 
REMARK    5  A    between atoms: C_23  and  O_25 
ROOT
ATOM      1  N           0     135.102 136.782 143.179  0.00  0.00    -0.235 N 
ATOM      2  H           0     134.334 137.321 142.935  0.00  0.00     0.174 HD
ATOM      3  H           0     135.955 137.208 143.364  0.00  0.00     0.174 HD
ATOM      4  C           0     134.990 135.486 143.263  0.00  0.00     0.672 C 
ATOM      5  N           0     133.796 134.832 143.013  0.00  0.00    -0.218 N 
ATOM      6  C           0     133.849 133.461 142.514  0.00  0.00     0.151 C 
ATOM      7  C           0     134.738 132.567 143.357  0.00  0.00     0.180 C 
ATOM      8  N           0     134.022 132.200 144.596  0.00  0.00    -0.216 N 
ATOM      9  C           0     134.934 132.224 145.624  0.00  0.00     0.670 C 
ATOM     10  N           0     134.765 131.621 146.767  0.00  0.00    -0.235 N 
ATOM     11  H           0     133.954 131.115 146.933  0.00  0.00     0.174 HD
ATOM     12  H           0     135.450 131.679 147.451  0.00  0.00     0.174 HD
ATOM     13  C           0     136.007 133.242 143.853  0.00  0.00     0.217 C 
ATOM     14  N           0     136.045 132.961 145.298  0.00  0.00    -0.191 N 
ATOM     15  N           0     136.048 134.682 143.598  0.00  0.00    -0.183 N 
ATOM     16  C           0     137.468 135.059 143.721  0.00  0.00     0.150 C 
ATOM     17  C           0     138.236 133.875 143.085  0.00  0.00     0.093 C 
ATOM     18  C           0     137.265 132.670 143.176  0.00  0.00     0.209 C 
ATOM     19  H           0     132.946 135.273 143.166  0.00  0.00     0.178 HD
ATOM     20  H           0     133.080 131.981 144.672  0.00  0.00     0.178 HD
ATOM     21  H           0     136.738 133.246 145.913  0.00  0.00     0.180 HD
ENDROOT
BRANCH   6  22
ATOM     22  C           0     134.384 133.478 141.081  0.00  0.00     0.208 C 
BRANCH  22  23
ATOM     23  O           0     133.295 133.753 140.161  0.00  0.00    -0.302 OA
BRANCH  23  24
ATOM     24  C           0     133.372 134.805 139.322  0.00  0.00     0.358 C 
ATOM     25  N           0     133.540 136.048 139.814  0.00  0.00    -0.346 N 
ATOM     26  H           0     133.606 136.186 140.772  0.00  0.00     0.161 HD
ATOM     27  H           0     133.594 136.805 139.210  0.00  0.00     0.161 HD
ATOM     28  O           0     133.289 134.631 138.123  0.00  0.00    -0.239 OA
ENDBRANCH  23  24
ENDBRANCH  22  23
ENDBRANCH   6  22
BRANCH  18  29
ATOM     29  O           0     137.835 131.630 143.972  0.00  0.00    -0.362 OA
ATOM     30  H           0     137.101 131.183 144.416  0.00  0.00     0.213 HD
ENDBRANCH  18  29
BRANCH  18  31
ATOM     31  O           0     136.949 132.184 141.870  0.00  0.00    -0.362 OA
ATOM     32  H           0     136.152 132.652 141.584  0.00  0.00     0.213 HD
ENDBRANCH  18  31
TORSDOF 5
ENDMDL
MODEL 2
REMARK VINA RESULT:      -7.5      1.924      5.637
REMARK  5 active torsions:
REMARK  status: ('A' for Active; 'I' for Inactive)
REMARK    1  A    between atoms: C_6  and  C_7 
REMARK    2  A    between atoms: C_7  and  O_8 
REMARK    3  A    between atoms: O_8  and  C_9 
REMARK       I    between atoms: C_9  and  N_10 
REMARK    4  A    between atoms: C_23  and  O_24 
REMARK    5  A    between atoms: C_23  and  O_25 
ROOT
ATOM      1  N           0     134.758 131.888 146.529  0.00  0.00    -0.235 N 
ATOM      2  H           0     134.995 131.935 147.468  0.00  0.00     0.174 HD
ATOM      3  H           0     134.086 131.256 146.229  0.00  0.00     0.174 HD
ATOM      4  C           0     135.340 132.677 145.670  0.00  0.00     0.672 C 
ATOM      5  N           0     136.301 133.598 146.048  0.00  0.00    -0.218 N 
ATOM      6  C           0     137.319 133.976 145.072  0.00  0.00     0.151 C 
ATOM      7  C           0     136.725 134.396 143.742  0.00  0.00     0.180 C 
ATOM      8  N           0     136.182 135.765 143.862  0.00  0.00    -0.216 N 
ATOM      9  C           0     135.003 135.807 143.159  0.00  0.00     0.670 C 
ATOM     10  N           0     134.438 136.905 142.741  0.00  0.00    -0.235 N 
ATOM     11  H           0     134.852 137.763 142.923  0.00  0.00     0.174 HD
ATOM     12  H           0     133.604 136.863 142.248  0.00  0.00     0.174 HD
ATOM     13  C           0     135.530 133.565 143.305  0.00  0.00     0.217 C 
ATOM     14  N           0     134.494 134.550 142.949  0.00  0.00    -0.191 N 
ATOM     15  N           0     135.044 132.643 144.332  0.00  0.00    -0.183 N 
ATOM     16  C           0     134.227 131.650 143.610  0.00  0.00     0.150 C 
ATOM     17  C           0     134.994 131.413 142.287  0.00  0.00     0.093 C 
ATOM     18  C           0     135.855 132.685 142.086  0.00  0.00     0.209 C 
ATOM     19  H           0     136.298 133.983 146.938  0.00  0.00     0.178 HD
ATOM     20  H           0     136.584 136.502 144.350  0.00  0.00     0.178 HD
ATOM     21  H           0     133.605 134.345 142.620  0.00  0.00     0.180 HD
ENDROOT
BRANCH   6  22
ATOM     22  C           0     138.250 132.784 144.843  0.00  0.00     0.208 C 
BRANCH  22  23
ATOM     23  O           0     138.768 132.321 146.117  0.00  0.00    -0.302 OA
BRANCH  23  24
ATOM     24  C           0     138.668 131.021 146.453  0.00  0.00     0.358 C 
ATOM     25  N           0     139.779 130.266 146.563  0.00  0.00    -0.346 N 
ATOM     26  H           0     140.652 130.659 146.401  0.00  0.00     0.161 HD
ATOM     27  H           0     139.708 129.329 146.804  0.00  0.00     0.161 HD
ATOM     28  O           0     137.576 130.528 146.656  0.00  0.00    -0.239 OA
ENDBRANCH  23  24
ENDBRANCH  22  23
ENDBRANCH   6  22
BRANCH  18  29
ATOM     29  O           0     135.489 133.348 140.874  0.00  0.00    -0.362 OA
ATOM     30  H           0     134.806 133.994 141.105  0.00  0.00     0.213 HD
ENDBRANCH  18  29
BRANCH  18  31
ATOM     31  O           0     137.244 132.350 142.072  0.00  0.00    -0.362 OA
ATOM     32  H           0     137.670 132.948 141.442  0.00  0.00     0.213 HD
ENDBRANCH  18  31
TORSDOF 5
ENDMDL
MODEL 3
REMARK VINA RESULT:      -6.8      5.273      9.786
REMARK  5 active torsions:
REMARK  status: ('A' for Active; 'I' for Inactive)
REMARK    1  A    between atoms: C_6  and  C_7 
REMARK    2  A    between atoms: C_7  and  O_8 
REMARK    3  A    between atoms: O_8  and  C_9 
REMARK       I    between atoms: C_9  and  N_10 
REMARK    4  A    between atoms: C_23  and  O_24 
REMARK    5  A    between atoms: C_23  and  O_25 
ROOT
ATOM      1  N           0     131.412 132.160 134.966  0.00  0.00    -0.235 N 
ATOM      2  H           0     130.819 131.815 135.651  0.00  0.00     0.174 HD
ATOM      3  H           0     131.792 131.560 134.305  0.00  0.00     0.174 HD
ATOM      4  C           0     131.697 133.432 134.930  0.00  0.00     0.672 C 
ATOM      5  N           0     131.178 134.330 135.847  0.00  0.00    -0.218 N 
ATOM      6  C           0     131.956 135.524 136.162  0.00  0.00     0.151 C 
ATOM      7  C           0     132.395 136.279 134.923  0.00  0.00     0.180 C 
ATOM      8  N           0     131.248 137.040 134.384  0.00  0.00    -0.216 N 
ATOM      9  C           0     131.298 136.952 133.015  0.00  0.00     0.670 C 
ATOM     10  N           0     130.687 137.770 132.205  0.00  0.00    -0.235 N 
ATOM     11  H           0     130.155 138.498 132.563  0.00  0.00     0.174 HD
ATOM     12  H           0     130.765 137.652 131.246  0.00  0.00     0.174 HD
ATOM     13  C           0     132.815 135.385 133.767  0.00  0.00     0.217 C 
ATOM     14  N           0     132.073 135.896 132.603  0.00  0.00    -0.191 N 
ATOM     15  N           0     132.535 133.966 133.986  0.00  0.00    -0.183 N 
ATOM     16  C           0     133.385 133.247 133.020  0.00  0.00     0.150 C 
ATOM     17  C           0     134.709 134.047 133.004  0.00  0.00     0.093 C 
ATOM     18  C           0     134.328 135.466 133.498  0.00  0.00     0.209 C 
ATOM     19  H           0     130.319 134.169 136.268  0.00  0.00     0.178 HD
ATOM     20  H           0     130.580 137.515 134.904  0.00  0.00     0.178 HD
ATOM     21  H           0     132.124 135.548 131.699  0.00  0.00     0.180 HD
ENDROOT
BRANCH   6  22
ATOM     22  C           0     133.197 135.110 136.954  0.00  0.00     0.208 C 
BRANCH  22  23
ATOM     23  O           0     132.796 134.343 138.118  0.00  0.00    -0.302 OA
BRANCH  23  24
ATOM     24  C           0     133.032 134.822 139.355  0.00  0.00     0.358 C 
ATOM     25  N           0     133.489 136.080 139.514  0.00  0.00    -0.346 N 
ATOM     26  H           0     133.648 136.641 138.738  0.00  0.00     0.161 HD
ATOM     27  H           0     133.659 136.425 140.405  0.00  0.00     0.161 HD
ATOM     28  O           0     132.832 134.120 140.326  0.00  0.00    -0.239 OA
ENDBRANCH  23  24
ENDBRANCH  22  23
ENDBRANCH   6  22
BRANCH  18  29
ATOM     29  O           0     134.609 136.437 132.488  0.00  0.00    -0.362 OA
ATOM     30  H           0     135.011 135.961 131.748  0.00  0.00     0.213 HD
ENDBRANCH  18  29
BRANCH  18  31
ATOM     31  O           0     135.030 135.780 134.703  0.00  0.00    -0.362 OA
ATOM     32  H           0     135.514 136.601 134.538  0.00  0.00     0.213 HD
ENDBRANCH  18  31
TORSDOF 5
ENDMDL
MODEL 4
REMARK VINA RESULT:      -6.8      2.932      4.799
REMARK  5 active torsions:
REMARK  status: ('A' for Active; 'I' for Inactive)
REMARK    1  A    between atoms: C_6  and  C_7 
REMARK    2  A    between atoms: C_7  and  O_8 
REMARK    3  A    between atoms: O_8  and  C_9 
REMARK       I    between atoms: C_9  and  N_10 
REMARK    4  A    between atoms: C_23  and  O_24 
REMARK    5  A    between atoms: C_23  and  O_25 
ROOT
ATOM      1  N           0     139.651 130.601 146.032  0.00  0.00    -0.235 N 
ATOM      2  H           0     140.404 130.754 145.441  0.00  0.00     0.174 HD
ATOM      3  H           0     139.684 129.882 146.683  0.00  0.00     0.174 HD
ATOM      4  C           0     138.597 131.363 145.957  0.00  0.00     0.672 C 
ATOM      5  N           0     138.504 132.405 145.050  0.00  0.00    -0.218 N 
ATOM      6  C           0     137.178 132.793 144.577  0.00  0.00     0.151 C 
ATOM      7  C           0     136.200 133.033 145.710  0.00  0.00     0.180 C 
ATOM      8  N           0     136.481 134.348 146.325  0.00  0.00    -0.216 N 
ATOM      9  C           0     136.331 134.211 147.683  0.00  0.00     0.670 C 
ATOM     10  N           0     136.143 135.206 148.504  0.00  0.00    -0.235 N 
ATOM     11  H           0     136.102 136.114 148.163  0.00  0.00     0.174 HD
ATOM     12  H           0     136.044 135.039 149.454  0.00  0.00     0.174 HD
ATOM     13  C           0     136.335 132.053 146.865  0.00  0.00     0.217 C 
ATOM     14  N           0     136.403 132.896 148.071  0.00  0.00    -0.191 N 
ATOM     15  N           0     137.506 131.183 146.767  0.00  0.00    -0.183 N 
ATOM     16  C           0     137.231 130.055 147.676  0.00  0.00     0.150 C 
ATOM     17  C           0     135.719 129.777 147.493  0.00  0.00     0.093 C 
ATOM     18  C           0     135.127 131.105 146.958  0.00  0.00     0.209 C 
ATOM     19  H           0     139.298 132.865 144.738  0.00  0.00     0.178 HD
ATOM     20  H           0     136.727 135.160 145.855  0.00  0.00     0.178 HD
ATOM     21  H           0     136.482 132.576 148.983  0.00  0.00     0.180 HD
ENDROOT
BRANCH   6  22
ATOM     22  C           0     136.630 131.683 143.679  0.00  0.00     0.208 C 
BRANCH  22  23
ATOM     23  O           0     135.330 132.072 143.164  0.00  0.00    -0.302 OA
BRANCH  23  24
ATOM     24  C           0     135.231 133.087 142.285  0.00  0.00     0.358 C 
ATOM     25  N           0     135.917 133.044 141.125  0.00  0.00    -0.346 N 
ATOM     26  H           0     136.483 132.282 140.924  0.00  0.00     0.161 HD
ATOM     27  H           0     135.846 133.776 140.492  0.00  0.00     0.161 HD
ATOM     28  O           0     134.522 134.042 142.536  0.00  0.00    -0.239 OA
ENDBRANCH  23  24
ENDBRANCH  22  23
ENDBRANCH   6  22
BRANCH  18  29
ATOM     29  O           0     134.153 131.618 147.868  0.00  0.00    -0.362 OA
ATOM     30  H           0     134.591 132.306 148.388  0.00  0.00     0.213 HD
ENDBRANCH  18  29
BRANCH  18  31
ATOM     31  O           0     134.549 130.908 145.665  0.00  0.00    -0.362 OA
ATOM     32  H           0     133.820 130.283 145.778  0.00  0.00     0.213 HD
ENDBRANCH  18  31
TORSDOF 5
ENDMDL
MODEL 5
REMARK VINA RESULT:      -6.7      3.001      4.451
REMARK  5 active torsions:
REMARK  status: ('A' for Active; 'I' for Inactive)
REMARK    1  A    between atoms: C_6  and  C_7 
REMARK    2  A    between atoms: C_7  and  O_8 
REMARK    3  A    between atoms: O_8  and  C_9 
REMARK       I    between atoms: C_9  and  N_10 
REMARK    4  A    between atoms: C_23  and  O_24 
REMARK    5  A    between atoms: C_23  and  O_25 
ROOT
ATOM      1  N           0     136.044 134.632 147.176  0.00  0.00    -0.235 N 
ATOM      2  H           0     135.572 135.341 146.713  0.00  0.00     0.174 HD
ATOM      3  H           0     136.529 134.825 147.994  0.00  0.00     0.174 HD
ATOM      4  C           0     136.025 133.417 146.703  0.00  0.00     0.672 C 
ATOM      5  N           0     135.344 133.090 145.543  0.00  0.00    -0.218 N 
ATOM      6  C           0     135.834 131.968 144.747  0.00  0.00     0.151 C 
ATOM      7  C           0     136.042 130.713 145.572  0.00  0.00     0.180 C 
ATOM      8  N           0     134.732 130.086 145.841  0.00  0.00    -0.216 N 
ATOM      9  C           0     134.752 129.621 147.133  0.00  0.00     0.670 C 
ATOM     10  N           0     133.939 128.715 147.599  0.00  0.00    -0.235 N 
ATOM     11  H           0     133.265 128.325 147.020  0.00  0.00     0.174 HD
ATOM     12  H           0     134.008 128.431 148.524  0.00  0.00     0.174 HD
ATOM     13  C           0     136.617 130.967 146.956  0.00  0.00     0.217 C 
ATOM     14  N           0     135.735 130.228 147.874  0.00  0.00    -0.191 N 
ATOM     15  N           0     136.681 132.383 147.318  0.00  0.00    -0.183 N 
ATOM     16  C           0     137.640 132.458 148.435  0.00  0.00     0.150 C 
ATOM     17  C           0     138.741 131.435 148.064  0.00  0.00     0.093 C 
ATOM     18  C           0     138.059 130.447 147.084  0.00  0.00     0.209 C 
ATOM     19  H           0     134.562 133.592 145.267  0.00  0.00     0.178 HD
ATOM     20  H           0     133.991 130.014 145.219  0.00  0.00     0.178 HD
ATOM     21  H           0     135.834 130.177 148.838  0.00  0.00     0.180 HD
ENDROOT
BRANCH   6  22
ATOM     22  C           0     137.166 132.363 144.105  0.00  0.00     0.208 C 
BRANCH  22  23
ATOM     23  O           0     136.931 133.354 143.072  0.00  0.00    -0.302 OA
BRANCH  23  24
ATOM     24  C           0     137.461 134.587 143.187  0.00  0.00     0.358 C 
ATOM     25  N           0     136.679 135.625 143.544  0.00  0.00    -0.346 N 
ATOM     26  H           0     135.735 135.485 143.718  0.00  0.00     0.161 HD
ATOM     27  H           0     137.061 136.514 143.627  0.00  0.00     0.161 HD
ATOM     28  O           0     138.643 134.762 142.971  0.00  0.00    -0.239 OA
ENDBRANCH  23  24
ENDBRANCH  22  23
ENDBRANCH   6  22
BRANCH  18  29
ATOM     29  O           0     138.071 129.124 147.624  0.00  0.00    -0.362 OA
ATOM     30  H           0     138.972 128.788 147.522  0.00  0.00     0.213 HD
ENDBRANCH  18  29
BRANCH  18  31
ATOM     31  O           0     138.712 130.474 145.813  0.00  0.00    -0.362 OA
ATOM     32  H           0     139.662 130.531 145.988  0.00  0.00     0.213 HD
ENDBRANCH  18  31
TORSDOF 5
ENDMDL
MODEL 6
REMARK VINA RESULT:      -6.7      2.386      5.111
REMARK  5 active torsions:
REMARK  status: ('A' for Active; 'I' for Inactive)
REMARK    1  A    between atoms: C_6  and  C_7 
REMARK    2  A    between atoms: C_7  and  O_8 
REMARK    3  A    between atoms: O_8  and  C_9 
REMARK       I    between atoms: C_9  and  N_10 
REMARK    4  A    between atoms: C_23  and  O_24 
REMARK    5  A    between atoms: C_23  and  O_25 
ROOT
ATOM      1  N           0     136.042 134.637 146.663  0.00  0.00    -0.235 N 
ATOM      2  H           0     136.490 135.464 146.899  0.00  0.00     0.174 HD
ATOM      3  H           0     135.600 134.112 147.349  0.00  0.00     0.174 HD
ATOM      4  C           0     136.030 134.231 145.424  0.00  0.00     0.672 C 
ATOM      5  N           0     136.642 134.946 144.409  0.00  0.00    -0.218 N 
ATOM      6  C           0     137.139 134.212 143.248  0.00  0.00     0.151 C 
ATOM      7  C           0     136.093 133.293 142.648  0.00  0.00     0.180 C 
ATOM      8  N           0     135.134 134.096 141.861  0.00  0.00    -0.216 N 
ATOM      9  C           0     133.881 133.578 142.082  0.00  0.00     0.670 C 
ATOM     10  N           0     132.856 133.781 141.302  0.00  0.00    -0.235 N 
ATOM     11  H           0     132.953 134.329 140.508  0.00  0.00     0.174 HD
ATOM     12  H           0     131.998 133.384 141.516  0.00  0.00     0.174 HD
ATOM     13  C           0     135.223 132.586 143.675  0.00  0.00     0.217 C 
ATOM     14  N           0     133.841 132.818 143.225  0.00  0.00    -0.191 N 
ATOM     15  N           0     135.416 133.067 145.043  0.00  0.00    -0.183 N 
ATOM     16  C           0     134.865 132.009 145.910  0.00  0.00     0.150 C 
ATOM     17  C           0     135.274 130.689 145.211  0.00  0.00     0.093 C 
ATOM     18  C           0     135.509 131.075 143.728  0.00  0.00     0.209 C 
ATOM     19  H           0     136.738 135.909 144.467  0.00  0.00     0.178 HD
ATOM     20  H           0     135.348 134.852 141.292  0.00  0.00     0.178 HD
ATOM     21  H           0     133.039 132.489 143.660  0.00  0.00     0.180 HD
ENDROOT
BRANCH   6  22
ATOM     22  C           0     138.346 133.375 143.673  0.00  0.00     0.208 C 
BRANCH  22  23
ATOM     23  O           0     138.538 133.493 145.107  0.00  0.00    -0.302 OA
BRANCH  23  24
ATOM     24  C           0     139.021 132.452 145.811  0.00  0.00     0.358 C 
ATOM     25  N           0     139.921 132.661 146.792  0.00  0.00    -0.346 N 
ATOM     26  H           0     140.221 133.562 146.991  0.00  0.00     0.161 HD
ATOM     27  H           0     140.270 131.910 147.298  0.00  0.00     0.161 HD
ATOM     28  O           0     138.645 131.323 145.561  0.00  0.00    -0.239 OA
ENDBRANCH  23  24
ENDBRANCH  22  23
ENDBRANCH   6  22
BRANCH  18  29
ATOM     29  O           0     134.606 130.362 142.880  0.00  0.00    -0.362 OA
ATOM     30  H           0     134.945 129.459 142.809  0.00  0.00     0.213 HD
ENDBRANCH  18  29
BRANCH  18  31
ATOM     31  O           0     136.862 130.812 143.352  0.00  0.00    -0.362 OA
ATOM     32  H           0     136.987 129.854 143.412  0.00  0.00     0.213 HD
ENDBRANCH  18  31
TORSDOF 5
ENDMDL
MODEL 7
REMARK VINA RESULT:      -6.6      2.908      4.824
REMARK  5 active torsions:
REMARK  status: ('A' for Active; 'I' for Inactive)
REMARK    1  A    between atoms: C_6  and  C_7 
REMARK    2  A    between atoms: C_7  and  O_8 
REMARK    3  A    between atoms: O_8  and  C_9 
REMARK       I    between atoms: C_9  and  N_10 
REMARK    4  A    between atoms: C_23  and  O_24 
REMARK    5  A    between atoms: C_23  and  O_25 
ROOT
ATOM      1  N           0     134.983 129.675 145.823  0.00  0.00    -0.235 N 
ATOM      2  H           0     134.624 129.205 145.055  0.00  0.00     0.174 HD
ATOM      3  H           0     134.756 129.383 146.720  0.00  0.00     0.174 HD
ATOM      4  C           0     135.773 130.698 145.652  0.00  0.00     0.672 C 
ATOM      5  N           0     136.130 131.150 144.393  0.00  0.00    -0.218 N 
ATOM      6  C           0     136.454 132.565 144.233  0.00  0.00     0.151 C 
ATOM      7  C           0     137.476 133.048 145.243  0.00  0.00     0.180 C 
ATOM      8  N           0     138.819 132.587 144.835  0.00  0.00    -0.216 N 
ATOM      9  C           0     139.492 132.211 145.971  0.00  0.00     0.670 C 
ATOM     10  N           0     140.788 132.098 146.053  0.00  0.00    -0.235 N 
ATOM     11  H           0     141.340 132.286 145.277  0.00  0.00     0.174 HD
ATOM     12  H           0     141.199 131.828 146.888  0.00  0.00     0.174 HD
ATOM     13  C           0     137.297 132.466 146.636  0.00  0.00     0.217 C 
ATOM     14  N           0     138.630 131.968 147.012  0.00  0.00    -0.191 N 
ATOM     15  N           0     136.300 131.398 146.706  0.00  0.00    -0.183 N 
ATOM     16  C           0     135.949 131.284 148.133  0.00  0.00     0.150 C 
ATOM     17  C           0     135.934 132.746 148.641  0.00  0.00     0.093 C 
ATOM     18  C           0     136.831 133.527 147.648  0.00  0.00     0.209 C 
ATOM     19  H           0     136.166 130.543 143.638  0.00  0.00     0.178 HD
ATOM     20  H           0     139.164 132.556 143.928  0.00  0.00     0.178 HD
ATOM     21  H           0     138.861 131.543 147.853  0.00  0.00     0.180 HD
ENDROOT
BRANCH   6  22
ATOM     22  C           0     135.173 133.385 144.396  0.00  0.00     0.208 C 
BRANCH  22  23
ATOM     23  O           0     135.469 134.791 144.192  0.00  0.00    -0.302 OA
BRANCH  23  24
ATOM     24  C           0     134.816 135.486 143.240  0.00  0.00     0.358 C 
ATOM     25  N           0     135.008 136.815 143.126  0.00  0.00    -0.346 N 
ATOM     26  H           0     135.616 137.272 143.729  0.00  0.00     0.161 HD
ATOM     27  H           0     134.537 137.316 142.441  0.00  0.00     0.161 HD
ATOM     28  O           0     134.055 134.914 142.485  0.00  0.00    -0.239 OA
ENDBRANCH  23  24
ENDBRANCH  22  23
ENDBRANCH   6  22
BRANCH  18  29
ATOM     29  O           0     137.949 134.098 148.329  0.00  0.00    -0.362 OA
ATOM     30  H           0     137.673 134.973 148.636  0.00  0.00     0.213 HD
ENDBRANCH  18  29
BRANCH  18  31
ATOM     31  O           0     136.075 134.545 146.987  0.00  0.00    -0.362 OA
ATOM     32  H           0     136.465 134.657 146.109  0.00  0.00     0.213 HD
ENDBRANCH  18  31
TORSDOF 5
ENDMDL
MODEL 8
REMARK VINA RESULT:      -6.5      8.051     10.733
REMARK  5 active torsions:
REMARK  status: ('A' for Active; 'I' for Inactive)
REMARK    1  A    between atoms: C_6  and  C_7 
REMARK    2  A    between atoms: C_7  and  O_8 
REMARK    3  A    between atoms: O_8  and  C_9 
REMARK       I    between atoms: C_9  and  N_10 
REMARK    4  A    between atoms: C_23  and  O_24 
REMARK    5  A    between atoms: C_23  and  O_25 
ROOT
ATOM      1  N           0     133.577 134.655 130.980  0.00  0.00    -0.235 N 
ATOM      2  H           0     133.561 135.327 130.281  0.00  0.00     0.174 HD
ATOM      3  H           0     134.241 133.947 130.957  0.00  0.00     0.174 HD
ATOM      4  C           0     132.711 134.703 131.953  0.00  0.00     0.672 C 
ATOM      5  N           0     131.747 135.694 132.033  0.00  0.00    -0.218 N 
ATOM      6  C           0     130.490 135.383 132.706  0.00  0.00     0.151 C 
ATOM      7  C           0     130.697 134.780 134.081  0.00  0.00     0.180 C 
ATOM      8  N           0     131.062 135.851 135.032  0.00  0.00    -0.216 N 
ATOM      9  C           0     132.029 135.350 135.869  0.00  0.00     0.670 C 
ATOM     10  N           0     132.328 135.859 137.031  0.00  0.00    -0.235 N 
ATOM     11  H           0     131.855 136.643 137.352  0.00  0.00     0.174 HD
ATOM     12  H           0     133.023 135.455 137.573  0.00  0.00     0.174 HD
ATOM     13  C           0     131.860 133.805 134.163  0.00  0.00     0.217 C 
ATOM     14  N           0     132.642 134.245 135.331  0.00  0.00    -0.191 N 
ATOM     15  N           0     132.691 133.773 132.959  0.00  0.00    -0.183 N 
ATOM     16  C           0     133.446 132.509 133.039  0.00  0.00     0.150 C 
ATOM     17  C           0     132.433 131.494 133.623  0.00  0.00     0.093 C 
ATOM     18  C           0     131.384 132.357 134.370  0.00  0.00     0.209 C 
ATOM     19  H           0     131.905 136.572 131.652  0.00  0.00     0.178 HD
ATOM     20  H           0     130.687 136.745 135.060  0.00  0.00     0.178 HD
ATOM     21  H           0     133.450 133.825 135.665  0.00  0.00     0.180 HD
ENDROOT
BRANCH   6  22
ATOM     22  C           0     129.702 134.393 131.846  0.00  0.00     0.208 C 
BRANCH  22  23
ATOM     23  O           0     128.367 134.231 132.393  0.00  0.00    -0.302 OA
BRANCH  23  24
ATOM     24  C           0     127.525 133.327 131.858  0.00  0.00     0.358 C 
ATOM     25  N           0     128.011 132.205 131.292  0.00  0.00    -0.346 N 
ATOM     26  H           0     128.969 132.048 131.270  0.00  0.00     0.161 HD
ATOM     27  H           0     127.405 131.554 130.906  0.00  0.00     0.161 HD
ATOM     28  O           0     126.326 133.523 131.886  0.00  0.00    -0.239 OA
ENDBRANCH  23  24
ENDBRANCH  22  23
ENDBRANCH   6  22
BRANCH  18  29
ATOM     29  O           0     131.367 132.026 135.760  0.00  0.00    -0.362 OA
ATOM     30  H           0     131.180 132.844 136.240  0.00  0.00     0.213 HD
ENDBRANCH  18  29
BRANCH  18  31
ATOM     31  O           0     130.088 132.174 133.796  0.00  0.00    -0.362 OA
ATOM     32  H           0     129.717 131.374 134.195  0.00  0.00     0.213 HD
ENDBRANCH  18  31
TORSDOF 5
ENDMDL
MODEL 9
REMARK VINA RESULT:      -6.5      7.203      9.707
REMARK  5 active torsions:
REMARK  status: ('A' for Active; 'I' for Inactive)
REMARK    1  A    between atoms: C_6  and  C_7 
REMARK    2  A    between atoms: C_7  and  O_8 
REMARK    3  A    between atoms: O_8  and  C_9 
REMARK       I    between atoms: C_9  and  N_10 
REMARK    4  A    between atoms: C_23  and  O_24 
REMARK    5  A    between atoms: C_23  and  O_25 
ROOT
ATOM      1  N           0     129.199 135.677 132.863  0.00  0.00    -0.235 N 
ATOM      2  H           0     128.332 135.250 132.791  0.00  0.00     0.174 HD
ATOM      3  H           0     129.364 136.521 132.413  0.00  0.00     0.174 HD
ATOM      4  C           0     130.144 135.120 133.569  0.00  0.00     0.672 C 
ATOM      5  N           0     129.957 133.921 134.233  0.00  0.00    -0.218 N 
ATOM      6  C           0     131.118 133.064 134.454  0.00  0.00     0.151 C 
ATOM      7  C           0     132.280 133.807 135.087  0.00  0.00     0.180 C 
ATOM      8  N           0     132.011 133.993 136.528  0.00  0.00    -0.216 N 
ATOM      9  C           0     132.444 135.250 136.872  0.00  0.00     0.670 C 
ATOM     10  N           0     132.703 135.627 138.092  0.00  0.00    -0.235 N 
ATOM     11  H           0     132.592 135.003 138.826  0.00  0.00     0.174 HD
ATOM     12  H           0     133.007 136.532 138.265  0.00  0.00     0.174 HD
ATOM     13  C           0     132.471 135.222 134.565  0.00  0.00     0.217 C 
ATOM     14  N           0     132.572 136.060 135.771  0.00  0.00    -0.191 N 
ATOM     15  N           0     131.387 135.682 133.696  0.00  0.00    -0.183 N 
ATOM     16  C           0     131.942 136.830 132.956  0.00  0.00     0.150 C 
ATOM     17  C           0     133.404 136.422 132.655  0.00  0.00     0.093 C 
ATOM     18  C           0     133.753 135.357 133.726  0.00  0.00     0.209 C 
ATOM     19  H           0     129.077 133.657 134.545  0.00  0.00     0.178 HD
ATOM     20  H           0     131.603 133.345 137.124  0.00  0.00     0.178 HD
ATOM     21  H           0     132.708 137.020 135.785  0.00  0.00     0.180 HD
ENDROOT
BRANCH   6  22
ATOM     22  C           0     131.572 132.492 133.110  0.00  0.00     0.208 C 
BRANCH  22  23
ATOM     23  O           0     132.771 131.697 133.302  0.00  0.00    -0.302 OA
BRANCH  23  24
ATOM     24  C           0     132.717 130.559 134.021  0.00  0.00     0.358 C 
ATOM     25  N           0     131.867 129.576 133.664  0.00  0.00    -0.346 N 
ATOM     26  H           0     131.293 129.688 132.889  0.00  0.00     0.161 HD
ATOM     27  H           0     131.828 128.756 134.181  0.00  0.00     0.161 HD
ATOM     28  O           0     133.435 130.419 134.991  0.00  0.00    -0.239 OA
ENDBRANCH  23  24
ENDBRANCH  22  23
ENDBRANCH   6  22
BRANCH  18  29
ATOM     29  O           0     134.841 135.804 134.537  0.00  0.00    -0.362 OA
ATOM     30  H           0     134.502 136.526 135.085  0.00  0.00     0.213 HD
ENDBRANCH  18  29
BRANCH  18  31
ATOM     31  O           0     134.073 134.111 133.103  0.00  0.00    -0.362 OA
ATOM     32  H           0     133.963 134.238 132.151  0.00  0.00     0.213 HD
ENDBRANCH  18  31
TORSDOF 5
ENDMDL
