# created with PyMOL 2.3.4
@<TRIPOS>MOLECULE
ligand_out_0001
32 34 1                 
SMALL
USER_CHARGES
@<TRIPOS>ATOM
1	   N	135.102	136.782	143.179	N.3	1	UNK0	-0.235	
2	   N	133.796	134.832	143.013	N.3	1	UNK0	-0.218	
3	   N	134.022	132.200	144.596	N.3	1	UNK0	-0.216	
4	   N	134.765	131.621	146.767	N.3	1	UNK0	-0.235	
5	   N	136.045	132.961	145.298	N.3	1	UNK0	-0.191	
6	   N	136.048	134.682	143.598	N.3	1	UNK0	-0.183	
7	   N	133.540	136.048	139.814	N.pl3	1	UNK0	-0.346	
8	   C	134.990	135.486	143.263	C.3	1	UNK0	0.672	
9	   C	133.849	133.461	142.514	C.3	1	UNK0	0.151	
10	   C	134.738	132.567	143.357	C.3	1	UNK0	0.180	
11	   C	134.934	132.224	145.624	C.3	1	UNK0	0.670	
12	   C	136.007	133.242	143.853	C.3	1	UNK0	0.217	
13	   C	137.468	135.059	143.721	C.3	1	UNK0	0.150	
14	   C	138.236	133.875	143.085	C.3	1	UNK0	0.093	
15	   C	137.265	132.670	143.176	C.3	1	UNK0	0.209	
16	   C	134.384	133.478	141.081	C.2	1	UNK0	0.208	
17	   C	133.372	134.805	139.322	C.2	1	UNK0	0.358	
18	   O	133.295	133.753	140.161	O.2	1	UNK0	-0.302	
19	   O	133.289	134.631	138.123	O.co2	1	UNK0	-0.239	
20	   O	137.835	131.630	143.972	O.2	1	UNK0	-0.362	
21	   O	136.949	132.184	141.870	O.2	1	UNK0	-0.362	
22	   H	134.334	137.321	142.935	 H	1	UNK0	0.174	
23	   H	135.955	137.208	143.364	 H	1	UNK0	0.174	
24	   H	133.954	131.115	146.933	 H	1	UNK0	0.174	
25	   H	135.450	131.679	147.451	 H	1	UNK0	0.174	
26	   H	132.946	135.273	143.166	 H	1	UNK0	0.178	
27	   H	133.080	131.981	144.672	 H	1	UNK0	0.178	
28	   H	136.738	133.246	145.913	 H	1	UNK0	0.180	
29	   H	133.606	136.186	140.772	 H	1	UNK0	0.161	
30	   H	133.594	136.805	139.210	 H	1	UNK0	0.161	
31	   H	137.101	131.183	144.416	 H	1	UNK0	0.213	
32	   H	136.152	132.652	141.584	 H	1	UNK0	0.213	
@<TRIPOS>BOND
1 1 8 1
2 1 22 1
3 1 23 1
4 2 9 1
5 2 26 1
6 3 11 1
7 3 27 1
8 4 24 1
9 4 25 1
10 5 28 1
11 6 13 1
12 7 29 1
13 7 30 1
14 2 8 1
15 6 8 1
16 9 10 1
17 9 16 1
18 3 10 1
19 10 12 1
20 4 11 1
21 5 11 1
22 5 12 1
23 6 12 1
24 12 15 1
25 13 14 1
26 14 15 1
27 15 20 2
28 15 21 2
29 16 18 2
30 7 17 1
31 17 19 2
32 17 18 2
33 20 31 1
34 21 32 1
@<TRIPOS>SUBSTRUCTURE
1	UNK0	1	GROUP	1 ****	UNK
