MODEL 1
REMARK VINA RESULT:      -7.2      0.000      0.000
REMARK  4 active torsions:
REMARK  status: ('A' for Active; 'I' for Inactive)
REMARK    1  A    between atoms: C_6  and  C_7 
REMARK    2  A    between atoms: C_7  and  O_8 
REMARK    3  A    between atoms: O_8  and  C_9 
REMARK       I    between atoms: C_9  and  N_10 
REMARK    4  A    between atoms: C_23  and  O_24 
ROOT
ATOM      1  N           0     135.216 136.616 143.329  0.00  0.00    -0.235 N 
ATOM      2  H           0     134.427 137.152 143.154  0.00  0.00     0.174 HD
ATOM      3  H           0     136.080 137.044 143.433  0.00  0.00     0.174 HD
ATOM      4  C           0     135.113 135.320 143.428  0.00  0.00     0.672 C 
ATOM      5  N           0     133.903 134.665 143.293  0.00  0.00    -0.218 N 
ATOM      6  C           0     133.907 133.295 142.788  0.00  0.00     0.151 C 
ATOM      7  C           0     134.872 132.399 143.542  0.00  0.00     0.177 C 
ATOM      8  N           0     134.267 132.007 144.829  0.00  0.00    -0.216 N 
ATOM      9  C           0     135.106 132.397 145.842  0.00  0.00     0.670 C 
ATOM     10  N           0     134.780 132.396 147.104  0.00  0.00    -0.235 N 
ATOM     11  H           0     133.894 132.106 147.376  0.00  0.00     0.174 HD
ATOM     12  H           0     135.422 132.684 147.772  0.00  0.00     0.174 HD
ATOM     13  C           0     136.171 133.081 143.935  0.00  0.00     0.187 C 
ATOM     14  N           0     136.333 132.790 145.363  0.00  0.00    -0.194 N 
ATOM     15  N           0     136.203 134.519 143.668  0.00  0.00    -0.186 N 
ATOM     16  C           0     137.620 134.913 143.668  0.00  0.00     0.147 C 
ATOM     17  C           0     138.433 133.648 143.320  0.00  0.00     0.057 C 
ATOM     18  C           0     137.378 132.531 143.151  0.00  0.00     0.172 C 
ATOM     19  H           0     133.072 135.105 143.528  0.00  0.00     0.178 HD
ATOM     20  H           0     133.420 131.548 144.941  0.00  0.00     0.178 HD
ATOM     21  H           0     137.154 132.863 145.875  0.00  0.00     0.180 HD
ENDROOT
BRANCH   6  22
ATOM     22  C           0     134.303 133.313 141.310  0.00  0.00     0.208 C 
BRANCH  22  23
ATOM     23  O           0     133.203 133.839 140.521  0.00  0.00    -0.302 OA
BRANCH  23  24
ATOM     24  C           0     133.430 134.804 139.609  0.00  0.00     0.358 C 
ATOM     25  N           0     133.533 136.089 139.999  0.00  0.00    -0.346 N 
ATOM     26  H           0     133.445 136.320 140.938  0.00  0.00     0.161 HD
ATOM     27  H           0     133.696 136.784 139.343  0.00  0.00     0.161 HD
ATOM     28  O           0     133.540 134.515 138.434  0.00  0.00    -0.239 OA
ENDBRANCH  23  24
ENDBRANCH  22  23
ENDBRANCH   6  22
BRANCH  18  29
ATOM     29  O           0     137.058 132.339 141.771  0.00  0.00    -0.391 OA
ATOM     30  H           0     137.472 131.508 141.501  0.00  0.00     0.210 HD
ENDBRANCH  18  29
TORSDOF 4
ENDMDL
MODEL 2
REMARK VINA RESULT:      -6.6      5.585      9.866
REMARK  4 active torsions:
REMARK  status: ('A' for Active; 'I' for Inactive)
REMARK    1  A    between atoms: C_6  and  C_7 
REMARK    2  A    between atoms: C_7  and  O_8 
REMARK    3  A    between atoms: O_8  and  C_9 
REMARK       I    between atoms: C_9  and  N_10 
REMARK    4  A    between atoms: C_23  and  O_24 
ROOT
ATOM      1  N           0     131.704 132.121 134.976  0.00  0.00    -0.235 N 
ATOM      2  H           0     131.156 131.762 135.690  0.00  0.00     0.174 HD
ATOM      3  H           0     132.133 131.523 134.345  0.00  0.00     0.174 HD
ATOM      4  C           0     131.861 133.410 134.862  0.00  0.00     0.672 C 
ATOM      5  N           0     131.267 134.304 135.734  0.00  0.00    -0.218 N 
ATOM      6  C           0     131.928 135.583 135.976  0.00  0.00     0.151 C 
ATOM      7  C           0     132.285 136.308 134.692  0.00  0.00     0.177 C 
ATOM      8  N           0     131.074 136.949 134.144  0.00  0.00    -0.216 N 
ATOM      9  C           0     130.871 136.480 132.870  0.00  0.00     0.670 C 
ATOM     10  N           0     129.781 136.677 132.183  0.00  0.00    -0.235 N 
ATOM     11  H           0     129.049 137.183 132.569  0.00  0.00     0.174 HD
ATOM     12  H           0     129.702 136.318 131.285  0.00  0.00     0.174 HD
ATOM     13  C           0     132.758 135.394 133.576  0.00  0.00     0.187 C 
ATOM     14  N           0     131.958 135.778 132.408  0.00  0.00    -0.194 N 
ATOM     15  N           0     132.634 133.966 133.871  0.00  0.00    -0.186 N 
ATOM     16  C           0     133.524 133.265 132.933  0.00  0.00     0.147 C 
ATOM     17  C           0     134.615 134.276 132.517  0.00  0.00     0.057 C 
ATOM     18  C           0     134.255 135.580 133.266  0.00  0.00     0.172 C 
ATOM     19  H           0     130.430 134.087 136.172  0.00  0.00     0.178 HD
ATOM     20  H           0     130.516 137.594 134.605  0.00  0.00     0.178 HD
ATOM     21  H           0     132.159 135.572 131.481  0.00  0.00     0.180 HD
ENDROOT
BRANCH   6  22
ATOM     22  C           0     133.210 135.333 136.774  0.00  0.00     0.208 C 
BRANCH  22  23
ATOM     23  O           0     132.929 134.423 137.870  0.00  0.00    -0.302 OA
BRANCH  23  24
ATOM     24  C           0     132.962 134.869 139.140  0.00  0.00     0.358 C 
ATOM     25  N           0     133.579 136.030 139.431  0.00  0.00    -0.346 N 
ATOM     26  H           0     134.000 136.546 138.726  0.00  0.00     0.161 HD
ATOM     27  H           0     133.603 136.351 140.346  0.00  0.00     0.161 HD
ATOM     28  O           0     132.434 134.222 140.024  0.00  0.00    -0.239 OA
ENDBRANCH  23  24
ENDBRANCH  22  23
ENDBRANCH   6  22
BRANCH  18  29
ATOM     29  O           0     135.023 135.704 134.466  0.00  0.00    -0.391 OA
ATOM     30  H           0     134.500 135.307 135.175  0.00  0.00     0.210 HD
ENDBRANCH  18  29
TORSDOF 4
ENDMDL
MODEL 3
REMARK VINA RESULT:      -6.6      2.488      4.110
REMARK  4 active torsions:
REMARK  status: ('A' for Active; 'I' for Inactive)
REMARK    1  A    between atoms: C_6  and  C_7 
REMARK    2  A    between atoms: C_7  and  O_8 
REMARK    3  A    between atoms: O_8  and  C_9 
REMARK       I    between atoms: C_9  and  N_10 
REMARK    4  A    between atoms: C_23  and  O_24 
ROOT
ATOM      1  N           0     140.111 132.021 145.511  0.00  0.00    -0.235 N 
ATOM      2  H           0     140.741 132.481 144.935  0.00  0.00     0.174 HD
ATOM      3  H           0     140.419 131.316 146.101  0.00  0.00     0.174 HD
ATOM      4  C           0     138.851 132.354 145.495  0.00  0.00     0.672 C 
ATOM      5  N           0     138.365 133.355 144.674  0.00  0.00    -0.218 N 
ATOM      6  C           0     136.980 133.270 144.220  0.00  0.00     0.151 C 
ATOM      7  C           0     136.005 133.050 145.361  0.00  0.00     0.177 C 
ATOM      8  N           0     135.779 134.329 146.062  0.00  0.00    -0.216 N 
ATOM      9  C           0     136.108 134.165 147.384  0.00  0.00     0.670 C 
ATOM     10  N           0     136.229 135.145 148.234  0.00  0.00    -0.235 N 
ATOM     11  H           0     136.082 136.060 147.944  0.00  0.00     0.174 HD
ATOM     12  H           0     136.464 134.961 149.157  0.00  0.00     0.174 HD
ATOM     13  C           0     136.520 132.119 146.444  0.00  0.00     0.187 C 
ATOM     14  N           0     136.296 132.841 147.701  0.00  0.00    -0.194 N 
ATOM     15  N           0     137.921 131.727 146.288  0.00  0.00    -0.186 N 
ATOM     16  C           0     138.112 130.520 147.106  0.00  0.00     0.147 C 
ATOM     17  C           0     136.727 129.853 147.244  0.00  0.00     0.057 C 
ATOM     18  C           0     135.760 130.779 146.470  0.00  0.00     0.172 C 
ATOM     19  H           0     138.931 134.096 144.408  0.00  0.00     0.178 HD
ATOM     20  H           0     135.451 135.146 145.657  0.00  0.00     0.178 HD
ATOM     21  H           0     136.284 132.455 148.591  0.00  0.00     0.180 HD
ENDROOT
BRANCH   6  22
ATOM     22  C           0     136.854 132.109 143.232  0.00  0.00     0.208 C 
BRANCH  22  23
ATOM     23  O           0     135.472 131.989 142.800  0.00  0.00    -0.302 OA
BRANCH  23  24
ATOM     24  C           0     134.978 132.838 141.879  0.00  0.00     0.358 C 
ATOM     25  N           0     135.731 133.199 140.823  0.00  0.00    -0.346 N 
ATOM     26  H           0     136.631 132.848 140.725  0.00  0.00     0.161 HD
ATOM     27  H           0     135.376 133.811 140.160  0.00  0.00     0.161 HD
ATOM     28  O           0     133.852 133.278 142.002  0.00  0.00    -0.239 OA
ENDBRANCH  23  24
ENDBRANCH  22  23
ENDBRANCH   6  22
BRANCH  18  29
ATOM     29  O           0     135.533 130.284 145.149  0.00  0.00    -0.391 OA
ATOM     30  H           0     135.223 131.032 144.620  0.00  0.00     0.210 HD
ENDBRANCH  18  29
TORSDOF 4
ENDMDL
MODEL 4
REMARK VINA RESULT:      -6.5      2.744      4.511
REMARK  4 active torsions:
REMARK  status: ('A' for Active; 'I' for Inactive)
REMARK    1  A    between atoms: C_6  and  C_7 
REMARK    2  A    between atoms: C_7  and  O_8 
REMARK    3  A    between atoms: O_8  and  C_9 
REMARK       I    between atoms: C_9  and  N_10 
REMARK    4  A    between atoms: C_23  and  O_24 
ROOT
ATOM      1  N           0     134.572 130.637 144.724  0.00  0.00    -0.235 N 
ATOM      2  H           0     134.393 130.383 143.806  0.00  0.00     0.174 HD
ATOM      3  H           0     133.931 130.424 145.420  0.00  0.00     0.174 HD
ATOM      4  C           0     135.677 131.259 145.024  0.00  0.00     0.672 C 
ATOM      5  N           0     136.624 131.580 144.069  0.00  0.00    -0.218 N 
ATOM      6  C           0     137.463 132.755 144.288  0.00  0.00     0.151 C 
ATOM      7  C           0     138.121 132.753 145.655  0.00  0.00     0.177 C 
ATOM      8  N           0     139.276 131.834 145.637  0.00  0.00    -0.216 N 
ATOM      9  C           0     139.097 130.891 146.618  0.00  0.00     0.670 C 
ATOM     10  N           0     139.818 129.812 146.735  0.00  0.00    -0.235 N 
ATOM     11  H           0     140.535 129.637 146.105  0.00  0.00     0.174 HD
ATOM     12  H           0     139.640 129.185 147.453  0.00  0.00     0.174 HD
ATOM     13  C           0     137.238 132.217 146.767  0.00  0.00     0.187 C 
ATOM     14  N           0     138.064 131.224 147.461  0.00  0.00    -0.194 N 
ATOM     15  N           0     135.972 131.644 146.310  0.00  0.00    -0.186 N 
ATOM     16  C           0     135.082 131.606 147.480  0.00  0.00     0.147 C 
ATOM     17  C           0     135.580 132.697 148.452  0.00  0.00     0.057 C 
ATOM     18  C           0     136.811 133.321 147.754  0.00  0.00     0.172 C 
ATOM     19  H           0     136.728 131.037 143.272  0.00  0.00     0.178 HD
ATOM     20  H           0     140.035 131.889 145.036  0.00  0.00     0.178 HD
ATOM     21  H           0     137.908 130.867 148.350  0.00  0.00     0.180 HD
ENDROOT
BRANCH   6  22
ATOM     22  C           0     136.599 134.011 144.158  0.00  0.00     0.208 C 
BRANCH  22  23
ATOM     23  O           0     135.998 134.051 142.837  0.00  0.00    -0.302 OA
BRANCH  23  24
ATOM     24  C           0     134.666 134.197 142.707  0.00  0.00     0.358 C 
ATOM     25  N           0     134.159 135.339 142.202  0.00  0.00    -0.346 N 
ATOM     26  H           0     134.754 136.056 141.932  0.00  0.00     0.161 HD
ATOM     27  H           0     133.200 135.445 142.109  0.00  0.00     0.161 HD
ATOM     28  O           0     133.920 133.299 143.046  0.00  0.00    -0.239 OA
ENDBRANCH  23  24
ENDBRANCH  22  23
ENDBRANCH   6  22
BRANCH  18  29
ATOM     29  O           0     136.450 134.521 147.068  0.00  0.00    -0.391 OA
ATOM     30  H           0     136.331 135.204 147.743  0.00  0.00     0.210 HD
ENDBRANCH  18  29
TORSDOF 4
ENDMDL
MODEL 5
REMARK VINA RESULT:      -6.5      2.837      4.671
REMARK  4 active torsions:
REMARK  status: ('A' for Active; 'I' for Inactive)
REMARK    1  A    between atoms: C_6  and  C_7 
REMARK    2  A    between atoms: C_7  and  O_8 
REMARK    3  A    between atoms: O_8  and  C_9 
REMARK       I    between atoms: C_9  and  N_10 
REMARK    4  A    between atoms: C_23  and  O_24 
ROOT
ATOM      1  N           0     134.041 130.551 148.265  0.00  0.00    -0.235 N 
ATOM      2  H           0     133.424 129.845 148.021  0.00  0.00     0.174 HD
ATOM      3  H           0     133.969 130.981 149.131  0.00  0.00     0.174 HD
ATOM      4  C           0     134.972 130.919 147.430  0.00  0.00     0.672 C 
ATOM      5  N           0     135.119 130.333 146.187  0.00  0.00    -0.218 N 
ATOM      6  C           0     135.684 131.133 145.104  0.00  0.00     0.151 C 
ATOM      7  C           0     136.990 131.800 145.492  0.00  0.00     0.177 C 
ATOM      8  N           0     138.080 130.807 145.433  0.00  0.00    -0.216 N 
ATOM      9  C           0     138.682 130.746 146.665  0.00  0.00     0.670 C 
ATOM     10  N           0     139.534 129.826 147.018  0.00  0.00    -0.235 N 
ATOM     11  H           0     139.780 129.126 146.392  0.00  0.00     0.174 HD
ATOM     12  H           0     139.924 129.841 147.906  0.00  0.00     0.174 HD
ATOM     13  C           0     137.025 132.305 146.924  0.00  0.00     0.187 C 
ATOM     14  N           0     138.274 131.774 147.480  0.00  0.00    -0.194 N 
ATOM     15  N           0     135.867 131.919 147.729  0.00  0.00    -0.186 N 
ATOM     16  C           0     135.833 132.833 148.880  0.00  0.00     0.147 C 
ATOM     17  C           0     136.573 134.117 148.449  0.00  0.00     0.057 C 
ATOM     18  C           0     137.034 133.843 146.998  0.00  0.00     0.172 C 
ATOM     19  H           0     134.853 129.412 146.038  0.00  0.00     0.178 HD
ATOM     20  H           0     138.331 130.286 144.654  0.00  0.00     0.178 HD
ATOM     21  H           0     138.727 132.090 148.279  0.00  0.00     0.180 HD
ENDROOT
BRANCH   6  22
ATOM     22  C           0     134.676 132.214 144.709  0.00  0.00     0.208 C 
BRANCH  22  23
ATOM     23  O           0     135.222 133.012 143.625  0.00  0.00    -0.302 OA
BRANCH  23  24
ATOM     24  C           0     135.004 132.650 142.346  0.00  0.00     0.358 C 
ATOM     25  N           0     135.861 133.037 141.382  0.00  0.00    -0.346 N 
ATOM     26  H           0     136.635 133.577 141.607  0.00  0.00     0.161 HD
ATOM     27  H           0     135.705 132.777 140.461  0.00  0.00     0.161 HD
ATOM     28  O           0     134.035 131.974 142.063  0.00  0.00    -0.239 OA
ENDBRANCH  23  24
ENDBRANCH  22  23
ENDBRANCH   6  22
BRANCH  18  29
ATOM     29  O           0     136.120 134.415 146.060  0.00  0.00    -0.391 OA
ATOM     30  H           0     136.202 133.903 145.243  0.00  0.00     0.210 HD
ENDBRANCH  18  29
TORSDOF 4
ENDMDL
MODEL 6
REMARK VINA RESULT:      -6.5      2.947      4.274
REMARK  4 active torsions:
REMARK  status: ('A' for Active; 'I' for Inactive)
REMARK    1  A    between atoms: C_6  and  C_7 
REMARK    2  A    between atoms: C_7  and  O_8 
REMARK    3  A    between atoms: O_8  and  C_9 
REMARK       I    between atoms: C_9  and  N_10 
REMARK    4  A    between atoms: C_23  and  O_24 
ROOT
ATOM      1  N           0     135.923 134.476 146.927  0.00  0.00    -0.235 N 
ATOM      2  H           0     135.362 135.096 146.436  0.00  0.00     0.174 HD
ATOM      3  H           0     136.511 134.802 147.626  0.00  0.00     0.174 HD
ATOM      4  C           0     135.882 133.202 146.651  0.00  0.00     0.672 C 
ATOM      5  N           0     135.058 132.688 145.667  0.00  0.00    -0.218 N 
ATOM      6  C           0     135.473 131.470 144.978  0.00  0.00     0.151 C 
ATOM      7  C           0     135.851 130.357 145.937  0.00  0.00     0.177 C 
ATOM      8  N           0     134.622 129.733 146.465  0.00  0.00    -0.216 N 
ATOM      9  C           0     134.642 129.821 147.835  0.00  0.00     0.670 C 
ATOM     10  N           0     133.619 129.562 148.599  0.00  0.00    -0.235 N 
ATOM     11  H           0     132.776 129.286 148.205  0.00  0.00     0.174 HD
ATOM     12  H           0     133.700 129.643 149.563  0.00  0.00     0.174 HD
ATOM     13  C           0     136.587 130.832 147.177  0.00  0.00     0.187 C 
ATOM     14  N           0     135.873 130.217 148.300  0.00  0.00    -0.194 N 
ATOM     15  N           0     136.662 132.287 147.315  0.00  0.00    -0.186 N 
ATOM     16  C           0     137.753 132.562 148.262  0.00  0.00     0.147 C 
ATOM     17  C           0     138.707 131.350 148.206  0.00  0.00     0.057 C 
ATOM     18  C           0     138.061 130.382 147.187  0.00  0.00     0.172 C 
ATOM     19  H           0     134.222 133.126 145.442  0.00  0.00     0.178 HD
ATOM     20  H           0     133.920 129.327 145.934  0.00  0.00     0.178 HD
ATOM     21  H           0     136.208 130.111 149.205  0.00  0.00     0.180 HD
ENDROOT
BRANCH   6  22
ATOM     22  C           0     136.681 131.790 144.094  0.00  0.00     0.208 C 
BRANCH  22  23
ATOM     23  O           0     136.286 132.723 143.054  0.00  0.00    -0.302 OA
BRANCH  23  24
ATOM     24  C           0     136.769 133.980 143.059  0.00  0.00     0.358 C 
ATOM     25  N           0     137.832 134.296 142.294  0.00  0.00    -0.346 N 
ATOM     26  H           0     138.250 133.618 141.739  0.00  0.00     0.161 HD
ATOM     27  H           0     138.181 135.201 142.297  0.00  0.00     0.161 HD
ATOM     28  O           0     136.246 134.829 143.753  0.00  0.00    -0.239 OA
ENDBRANCH  23  24
ENDBRANCH  22  23
ENDBRANCH   6  22
BRANCH  18  29
ATOM     29  O           0     138.659 130.530 145.898  0.00  0.00    -0.391 OA
ATOM     30  H           0     138.017 130.203 145.252  0.00  0.00     0.210 HD
ENDBRANCH  18  29
TORSDOF 4
ENDMDL
MODEL 7
REMARK VINA RESULT:      -6.4      2.795      4.085
REMARK  4 active torsions:
REMARK  status: ('A' for Active; 'I' for Inactive)
REMARK    1  A    between atoms: C_6  and  C_7 
REMARK    2  A    between atoms: C_7  and  O_8 
REMARK    3  A    between atoms: O_8  and  C_9 
REMARK       I    between atoms: C_9  and  N_10 
REMARK    4  A    between atoms: C_23  and  O_24 
ROOT
ATOM      1  N           0     136.150 134.019 148.428  0.00  0.00    -0.235 N 
ATOM      2  H           0     135.287 134.413 148.625  0.00  0.00     0.174 HD
ATOM      3  H           0     136.954 134.385 148.830  0.00  0.00     0.174 HD
ATOM      4  C           0     136.231 132.993 147.628  0.00  0.00     0.672 C 
ATOM      5  N           0     135.115 132.433 147.035  0.00  0.00    -0.218 N 
ATOM      6  C           0     135.272 131.773 145.742  0.00  0.00     0.151 C 
ATOM      7  C           0     136.396 130.754 145.740  0.00  0.00     0.177 C 
ATOM      8  N           0     135.934 129.519 146.403  0.00  0.00    -0.216 N 
ATOM      9  C           0     136.777 129.246 147.451  0.00  0.00     0.670 C 
ATOM     10  N           0     136.535 128.353 148.370  0.00  0.00    -0.235 N 
ATOM     11  H           0     135.717 127.832 148.337  0.00  0.00     0.174 HD
ATOM     12  H           0     137.174 128.209 149.085  0.00  0.00     0.174 HD
ATOM     13  C           0     137.613 131.174 146.545  0.00  0.00     0.187 C 
ATOM     14  N           0     137.905 130.029 147.413  0.00  0.00    -0.194 N 
ATOM     15  N           0     137.433 132.405 147.314  0.00  0.00    -0.186 N 
ATOM     16  C           0     138.780 132.896 147.641  0.00  0.00     0.147 C 
ATOM     17  C           0     139.733 132.325 146.569  0.00  0.00     0.057 C 
ATOM     18  C           0     138.830 131.472 145.648  0.00  0.00     0.172 C 
ATOM     19  H           0     134.248 132.476 147.468  0.00  0.00     0.178 HD
ATOM     20  H           0     135.166 128.989 146.141  0.00  0.00     0.178 HD
ATOM     21  H           0     138.740 129.858 147.877  0.00  0.00     0.180 HD
ENDROOT
BRANCH   6  22
ATOM     22  C           0     135.564 132.832 144.678  0.00  0.00     0.208 C 
BRANCH  22  23
ATOM     23  O           0     135.783 132.184 143.397  0.00  0.00    -0.302 OA
BRANCH  23  24
ATOM     24  C           0     135.951 132.928 142.286  0.00  0.00     0.358 C 
ATOM     25  N           0     137.072 133.657 142.127  0.00  0.00    -0.346 N 
ATOM     26  H           0     137.759 133.647 142.812  0.00  0.00     0.161 HD
ATOM     27  H           0     137.193 134.193 141.328  0.00  0.00     0.161 HD
ATOM     28  O           0     135.090 132.941 141.428  0.00  0.00    -0.239 OA
ENDBRANCH  23  24
ENDBRANCH  22  23
ENDBRANCH   6  22
BRANCH  18  29
ATOM     29  O           0     138.450 132.210 144.485  0.00  0.00    -0.391 OA
ATOM     30  H           0     137.572 131.897 144.229  0.00  0.00     0.210 HD
ENDBRANCH  18  29
TORSDOF 4
ENDMDL
MODEL 8
REMARK VINA RESULT:      -6.2      9.521     11.968
REMARK  4 active torsions:
REMARK  status: ('A' for Active; 'I' for Inactive)
REMARK    1  A    between atoms: C_6  and  C_7 
REMARK    2  A    between atoms: C_7  and  O_8 
REMARK    3  A    between atoms: O_8  and  C_9 
REMARK       I    between atoms: C_9  and  N_10 
REMARK    4  A    between atoms: C_23  and  O_24 
ROOT
ATOM      1  N           0     128.554 132.483 130.875  0.00  0.00    -0.235 N 
ATOM      2  H           0     127.604 132.289 130.837  0.00  0.00     0.174 HD
ATOM      3  H           0     128.955 133.074 130.219  0.00  0.00     0.174 HD
ATOM      4  C           0     129.290 131.951 131.811  0.00  0.00     0.672 C 
ATOM      5  N           0     128.763 131.106 132.770  0.00  0.00    -0.218 N 
ATOM      6  C           0     129.632 130.087 133.351  0.00  0.00     0.151 C 
ATOM      7  C           0     130.941 130.659 133.861  0.00  0.00     0.177 C 
ATOM      8  N           0     130.711 131.316 135.163  0.00  0.00    -0.216 N 
ATOM      9  C           0     131.111 132.625 135.067  0.00  0.00     0.670 C 
ATOM     10  N           0     130.851 133.537 135.961  0.00  0.00    -0.235 N 
ATOM     11  H           0     130.344 133.306 136.756  0.00  0.00     0.174 HD
ATOM     12  H           0     131.164 134.446 135.832  0.00  0.00     0.174 HD
ATOM     13  C           0     131.519 131.758 132.988  0.00  0.00     0.187 C 
ATOM     14  N           0     131.819 132.856 133.912  0.00  0.00    -0.194 N 
ATOM     15  N           0     130.640 132.191 131.901  0.00  0.00    -0.186 N 
ATOM     16  C           0     131.492 132.884 130.924  0.00  0.00     0.147 C 
ATOM     17  C           0     132.922 132.335 131.113  0.00  0.00     0.057 C 
ATOM     18  C           0     132.807 131.315 132.269  0.00  0.00     0.172 C 
ATOM     19  H           0     127.839 131.190 133.051  0.00  0.00     0.178 HD
ATOM     20  H           0     130.341 130.893 135.953  0.00  0.00     0.178 HD
ATOM     21  H           0     132.408 133.608 133.739  0.00  0.00     0.180 HD
ENDROOT
BRANCH   6  22
ATOM     22  C           0     129.936 129.031 132.286  0.00  0.00     0.208 C 
BRANCH  22  23
ATOM     23  O           0     129.814 127.707 132.869  0.00  0.00    -0.302 OA
BRANCH  23  24
ATOM     24  C           0     130.900 126.918 132.983  0.00  0.00     0.358 C 
ATOM     25  N           0     130.780 125.583 132.853  0.00  0.00    -0.346 N 
ATOM     26  H           0     129.911 125.188 132.677  0.00  0.00     0.161 HD
ATOM     27  H           0     131.561 125.015 132.935  0.00  0.00     0.161 HD
ATOM     28  O           0     131.988 127.412 133.204  0.00  0.00    -0.239 OA
ENDBRANCH  23  24
ENDBRANCH  22  23
ENDBRANCH   6  22
BRANCH  18  29
ATOM     29  O           0     132.687 129.984 131.761  0.00  0.00    -0.391 OA
ATOM     30  H           0     132.321 130.057 130.869  0.00  0.00     0.210 HD
ENDBRANCH  18  29
TORSDOF 4
ENDMDL
MODEL 9
REMARK VINA RESULT:      -6.2      7.427     11.172
REMARK  4 active torsions:
REMARK  status: ('A' for Active; 'I' for Inactive)
REMARK    1  A    between atoms: C_6  and  C_7 
REMARK    2  A    between atoms: C_7  and  O_8 
REMARK    3  A    between atoms: O_8  and  C_9 
REMARK       I    between atoms: C_9  and  N_10 
REMARK    4  A    between atoms: C_23  and  O_24 
ROOT
ATOM      1  N           0     129.647 135.189 132.325  0.00  0.00    -0.235 N 
ATOM      2  H           0     129.781 136.118 132.565  0.00  0.00     0.174 HD
ATOM      3  H           0     128.918 134.940 131.736  0.00  0.00     0.174 HD
ATOM      4  C           0     130.451 134.274 132.790  0.00  0.00     0.672 C 
ATOM      5  N           0     131.508 134.579 133.628  0.00  0.00    -0.218 N 
ATOM      6  C           0     131.950 133.569 134.585  0.00  0.00     0.151 C 
ATOM      7  C           0     132.209 132.224 133.935  0.00  0.00     0.177 C 
ATOM      8  N           0     133.515 132.258 133.248  0.00  0.00    -0.216 N 
ATOM      9  C           0     133.320 131.951 131.925  0.00  0.00     0.670 C 
ATOM     10  N           0     134.224 132.100 130.998  0.00  0.00    -0.235 N 
ATOM     11  H           0     135.101 132.447 131.228  0.00  0.00     0.174 HD
ATOM     12  H           0     134.022 131.863 130.080  0.00  0.00     0.174 HD
ATOM     13  C           0     131.222 131.867 132.837  0.00  0.00     0.187 C 
ATOM     14  N           0     132.053 131.468 131.696  0.00  0.00    -0.194 N 
ATOM     15  N           0     130.297 132.943 132.483  0.00  0.00    -0.186 N 
ATOM     16  C           0     129.169 132.313 131.780  0.00  0.00     0.147 C 
ATOM     17  C           0     129.117 130.844 132.253  0.00  0.00     0.057 C 
ATOM     18  C           0     130.298 130.702 133.240  0.00  0.00     0.172 C 
ATOM     19  H           0     131.945 135.444 133.580  0.00  0.00     0.178 HD
ATOM     20  H           0     134.367 132.461 133.662  0.00  0.00     0.178 HD
ATOM     21  H           0     131.762 130.960 130.923  0.00  0.00     0.180 HD
ENDROOT
BRANCH   6  22
ATOM     22  C           0     130.873 133.399 135.658  0.00  0.00     0.208 C 
BRANCH  22  23
ATOM     23  O           0     131.238 132.306 136.542  0.00  0.00    -0.302 OA
BRANCH  23  24
ATOM     24  C           0     130.521 132.074 137.658  0.00  0.00     0.358 C 
ATOM     25  N           0     130.847 132.692 138.809  0.00  0.00    -0.346 N 
ATOM     26  H           0     131.599 133.306 138.835  0.00  0.00     0.161 HD
ATOM     27  H           0     130.331 132.525 139.613  0.00  0.00     0.161 HD
ATOM     28  O           0     129.581 131.305 137.626  0.00  0.00    -0.239 OA
ENDBRANCH  23  24
ENDBRANCH  22  23
ENDBRANCH   6  22
BRANCH  18  29
ATOM     29  O           0     129.850 130.837 134.591  0.00  0.00    -0.391 OA
ATOM     30  H           0     130.482 131.416 135.039  0.00  0.00     0.210 HD
ENDBRANCH  18  29
TORSDOF 4
ENDMDL
