# created with PyMOL 2.3.4
@<TRIPOS>MOLECULE
ligand_out_0001
30 32 1                 
SMALL
USER_CHARGES
@<TRIPOS>ATOM
1	   N	135.216	136.616	143.329	N.3	1	UNK0	-0.235	
2	   N	133.903	134.665	143.293	N.3	1	UNK0	-0.218	
3	   N	134.267	132.007	144.829	N.3	1	UNK0	-0.216	
4	   N	134.780	132.396	147.104	N.3	1	UNK0	-0.235	
5	   N	136.333	132.790	145.363	N.3	1	UNK0	-0.194	
6	   N	136.203	134.519	143.668	N.3	1	UNK0	-0.186	
7	   N	133.533	136.089	139.999	N.pl3	1	UNK0	-0.346	
8	   C	135.113	135.320	143.428	C.3	1	UNK0	0.672	
9	   C	133.907	133.295	142.788	C.3	1	UNK0	0.151	
10	   C	134.872	132.399	143.542	C.3	1	UNK0	0.177	
11	   C	135.106	132.397	145.842	C.3	1	UNK0	0.670	
12	   C	136.171	133.081	143.935	C.3	1	UNK0	0.187	
13	   C	137.620	134.913	143.668	C.3	1	UNK0	0.147	
14	   C	138.433	133.648	143.320	C.3	1	UNK0	0.057	
15	   C	137.378	132.531	143.151	C.2	1	UNK0	0.172	
16	   C	134.303	133.313	141.310	C.2	1	UNK0	0.208	
17	   C	133.430	134.804	139.609	C.2	1	UNK0	0.358	
18	   O	133.203	133.839	140.521	O.2	1	UNK0	-0.302	
19	   O	133.540	134.515	138.434	O.co2	1	UNK0	-0.239	
20	   O	137.058	132.339	141.771	O.2	1	UNK0	-0.391	
21	   H	134.427	137.152	143.154	 H	1	UNK0	0.174	
22	   H	136.080	137.044	143.433	 H	1	UNK0	0.174	
23	   H	133.894	132.106	147.376	 H	1	UNK0	0.174	
24	   H	135.422	132.684	147.772	 H	1	UNK0	0.174	
25	   H	133.072	135.105	143.528	 H	1	UNK0	0.178	
26	   H	133.420	131.548	144.941	 H	1	UNK0	0.178	
27	   H	137.154	132.863	145.875	 H	1	UNK0	0.180	
28	   H	133.445	136.320	140.938	 H	1	UNK0	0.161	
29	   H	133.696	136.784	139.343	 H	1	UNK0	0.161	
30	   H	137.472	131.508	141.501	 H	1	UNK0	0.210	
@<TRIPOS>BOND
1 1 8 1
2 1 21 1
3 1 22 1
4 2 9 1
5 2 25 1
6 3 11 1
7 3 26 1
8 4 23 1
9 4 24 1
10 5 27 1
11 6 13 1
12 7 28 1
13 7 29 1
14 2 8 1
15 6 8 1
16 9 10 1
17 9 16 1
18 3 10 1
19 10 12 1
20 4 11 1
21 5 11 1
22 5 12 1
23 6 12 1
24 12 15 1
25 13 14 1
26 14 15 1
27 15 20 2
28 16 18 2
29 7 17 1
30 17 19 2
31 17 18 2
32 20 30 1
@<TRIPOS>SUBSTRUCTURE
1	UNK0	1	GROUP	1 ****	UNK
