MODEL 1
REMARK VINA RESULT:      -8.1      0.000      0.000
REMARK  5 active torsions:
REMARK  status: ('A' for Active; 'I' for Inactive)
REMARK    1  A    between atoms: C_6  and  C_7 
REMARK    2  A    between atoms: C_7  and  O_8 
REMARK    3  A    between atoms: O_8  and  C_9 
REMARK       I    between atoms: C_9  and  N_10 
REMARK    4  A    between atoms: C_24  and  O_25 
REMARK    5  A    between atoms: C_24  and  O_26 
ROOT
ATOM      1  N           0     135.045 136.768 143.171  0.00  0.00    -0.235 N 
ATOM      2  H           0     134.268 137.292 142.924  0.00  0.00     0.174 HD
ATOM      3  H           0     135.889 137.210 143.357  0.00  0.00     0.174 HD
ATOM      4  C           0     134.956 135.471 143.260  0.00  0.00     0.672 C 
ATOM      5  N           0     133.774 134.795 143.009  0.00  0.00    -0.218 N 
ATOM      6  C           0     133.852 133.423 142.515  0.00  0.00     0.151 C 
ATOM      7  C           0     134.754 132.548 143.362  0.00  0.00     0.180 C 
ATOM      8  N           0     134.042 132.173 144.603  0.00  0.00    -0.215 N 
ATOM      9  C           0     134.951 132.217 145.632  0.00  0.00     0.672 C 
ATOM     10  N           0     134.791 131.615 146.777  0.00  0.00    -0.235 N 
ATOM     11  H           0     133.988 131.095 146.943  0.00  0.00     0.174 HD
ATOM     12  H           0     135.472 131.688 147.463  0.00  0.00     0.174 HD
ATOM     13  C           0     136.010 133.246 143.860  0.00  0.00     0.219 C 
ATOM     14  N           0     136.049 132.972 145.306  0.00  0.00    -0.187 N 
ATOM     15  C           0     137.087 133.425 146.237  0.00  0.00     0.171 C 
ATOM     16  N           0     136.027 134.687 143.599  0.00  0.00    -0.183 N 
ATOM     17  C           0     137.440 135.089 143.723  0.00  0.00     0.150 C 
ATOM     18  C           0     138.229 133.916 143.094  0.00  0.00     0.093 C 
ATOM     19  C           0     137.279 132.695 143.188  0.00  0.00     0.210 C 
ATOM     20  H           0     132.915 135.223 143.159  0.00  0.00     0.178 HD
ATOM     21  H           0     133.105 131.938 144.676  0.00  0.00     0.178 HD
ENDROOT
BRANCH   6  22
ATOM     22  C           0     134.390 133.444 141.083  0.00  0.00     0.208 C 
BRANCH  22  23
ATOM     23  O           0     133.308 133.752 140.165  0.00  0.00    -0.302 OA
BRANCH  23  24
ATOM     24  C           0     133.400 134.821 139.351  0.00  0.00     0.358 C 
ATOM     25  N           0     133.531 136.057 139.874  0.00  0.00    -0.346 N 
ATOM     26  H           0     133.559 136.175 140.835  0.00  0.00     0.161 HD
ATOM     27  H           0     133.597 136.827 139.287  0.00  0.00     0.161 HD
ATOM     28  O           0     133.365 134.672 138.145  0.00  0.00    -0.239 OA
ENDBRANCH  23  24
ENDBRANCH  22  23
ENDBRANCH   6  22
BRANCH  19  29
ATOM     29  O           0     137.867 131.667 143.989  0.00  0.00    -0.362 OA
ATOM     30  H           0     138.758 131.966 144.216  0.00  0.00     0.213 HD
ENDBRANCH  19  29
BRANCH  19  31
ATOM     31  O           0     136.975 132.199 141.884  0.00  0.00    -0.362 OA
ATOM     32  H           0     137.503 131.397 141.759  0.00  0.00     0.213 HD
ENDBRANCH  19  31
TORSDOF 5
ENDMDL
MODEL 2
REMARK VINA RESULT:      -7.4      1.765      5.715
REMARK  5 active torsions:
REMARK  status: ('A' for Active; 'I' for Inactive)
REMARK    1  A    between atoms: C_6  and  C_7 
REMARK    2  A    between atoms: C_7  and  O_8 
REMARK    3  A    between atoms: O_8  and  C_9 
REMARK       I    between atoms: C_9  and  N_10 
REMARK    4  A    between atoms: C_24  and  O_25 
REMARK    5  A    between atoms: C_24  and  O_26 
ROOT
ATOM      1  N           0     134.715 131.895 146.743  0.00  0.00    -0.235 N 
ATOM      2  H           0     134.846 132.034 147.694  0.00  0.00     0.174 HD
ATOM      3  H           0     134.138 131.180 146.432  0.00  0.00     0.174 HD
ATOM      4  C           0     135.310 132.673 145.883  0.00  0.00     0.672 C 
ATOM      5  N           0     136.138 133.710 146.277  0.00  0.00    -0.218 N 
ATOM      6  C           0     137.215 134.115 145.378  0.00  0.00     0.151 C 
ATOM      7  C           0     136.730 134.377 143.966  0.00  0.00     0.180 C 
ATOM      8  N           0     136.054 135.691 143.920  0.00  0.00    -0.215 N 
ATOM      9  C           0     134.958 135.565 143.103  0.00  0.00     0.672 C 
ATOM     10  N           0     134.342 136.569 142.543  0.00  0.00    -0.235 N 
ATOM     11  H           0     134.655 137.474 142.694  0.00  0.00     0.174 HD
ATOM     12  H           0     133.572 136.410 141.976  0.00  0.00     0.174 HD
ATOM     13  C           0     135.667 133.403 143.483  0.00  0.00     0.219 C 
ATOM     14  N           0     134.589 134.252 142.948  0.00  0.00    -0.187 N 
ATOM     15  C           0     133.340 133.776 142.348  0.00  0.00     0.171 C 
ATOM     16  N           0     135.161 132.513 144.530  0.00  0.00    -0.183 N 
ATOM     17  C           0     134.520 131.395 143.815  0.00  0.00     0.150 C 
ATOM     18  C           0     135.440 131.140 142.598  0.00  0.00     0.093 C 
ATOM     19  C           0     136.198 132.474 142.379  0.00  0.00     0.210 C 
ATOM     20  H           0     136.005 134.156 147.129  0.00  0.00     0.178 HD
ATOM     21  H           0     136.335 136.496 144.382  0.00  0.00     0.178 HD
ENDROOT
BRANCH   6  22
ATOM     22  C           0     138.269 133.007 145.339  0.00  0.00     0.208 C 
BRANCH  22  23
ATOM     23  O           0     138.606 132.612 146.695  0.00  0.00    -0.302 OA
BRANCH  23  24
ATOM     24  C           0     138.719 131.308 147.007  0.00  0.00     0.358 C 
ATOM     25  N           0     138.109 130.377 146.247  0.00  0.00    -0.346 N 
ATOM     26  H           0     137.588 130.648 145.475  0.00  0.00     0.161 HD
ATOM     27  H           0     138.190 129.437 146.472  0.00  0.00     0.161 HD
ATOM     28  O           0     139.372 130.968 147.975  0.00  0.00    -0.239 OA
ENDBRANCH  23  24
ENDBRANCH  22  23
ENDBRANCH   6  22
BRANCH  19  29
ATOM     29  O           0     135.903 133.007 141.086  0.00  0.00    -0.362 OA
ATOM     30  H           0     135.252 133.711 141.216  0.00  0.00     0.213 HD
ENDBRANCH  19  29
BRANCH  19  31
ATOM     31  O           0     137.605 132.277 142.528  0.00  0.00    -0.362 OA
ATOM     32  H           0     137.721 131.452 143.020  0.00  0.00     0.213 HD
ENDBRANCH  19  31
TORSDOF 5
ENDMDL
MODEL 3
REMARK VINA RESULT:      -7.0      5.469     10.147
REMARK  5 active torsions:
REMARK  status: ('A' for Active; 'I' for Inactive)
REMARK    1  A    between atoms: C_6  and  C_7 
REMARK    2  A    between atoms: C_7  and  O_8 
REMARK    3  A    between atoms: O_8  and  C_9 
REMARK       I    between atoms: C_9  and  N_10 
REMARK    4  A    between atoms: C_24  and  O_25 
REMARK    5  A    between atoms: C_24  and  O_26 
ROOT
ATOM      1  N           0     131.415 132.155 134.966  0.00  0.00    -0.235 N 
ATOM      2  H           0     130.825 131.808 135.653  0.00  0.00     0.174 HD
ATOM      3  H           0     131.788 131.556 134.299  0.00  0.00     0.174 HD
ATOM      4  C           0     131.701 133.426 134.932  0.00  0.00     0.672 C 
ATOM      5  N           0     131.190 134.321 135.856  0.00  0.00    -0.218 N 
ATOM      6  C           0     131.972 135.513 136.170  0.00  0.00     0.151 C 
ATOM      7  C           0     132.404 136.272 134.930  0.00  0.00     0.180 C 
ATOM      8  N           0     131.254 137.036 134.402  0.00  0.00    -0.215 N 
ATOM      9  C           0     131.295 136.953 133.032  0.00  0.00     0.672 C 
ATOM     10  N           0     130.679 137.775 132.229  0.00  0.00    -0.235 N 
ATOM     11  H           0     130.150 138.503 132.593  0.00  0.00     0.174 HD
ATOM     12  H           0     130.749 137.660 131.269  0.00  0.00     0.174 HD
ATOM     13  C           0     132.815 135.382 133.768  0.00  0.00     0.219 C 
ATOM     14  N           0     132.064 135.897 132.611  0.00  0.00    -0.187 N 
ATOM     15  C           0     132.132 135.376 131.243  0.00  0.00     0.171 C 
ATOM     16  N           0     132.533 133.961 133.984  0.00  0.00    -0.183 N 
ATOM     17  C           0     133.376 133.244 133.009  0.00  0.00     0.150 C 
ATOM     18  C           0     134.701 134.043 132.988  0.00  0.00     0.093 C 
ATOM     19  C           0     134.325 135.461 133.489  0.00  0.00     0.210 C 
ATOM     20  H           0     130.333 134.160 136.282  0.00  0.00     0.178 HD
ATOM     21  H           0     130.591 137.510 134.928  0.00  0.00     0.178 HD
ENDROOT
BRANCH   6  22
ATOM     22  C           0     133.219 135.095 136.951  0.00  0.00     0.208 C 
BRANCH  22  23
ATOM     23  O           0     132.824 134.324 138.116  0.00  0.00    -0.302 OA
BRANCH  23  24
ATOM     24  C           0     133.030 134.819 139.351  0.00  0.00     0.358 C 
ATOM     25  N           0     133.496 136.075 139.506  0.00  0.00    -0.346 N 
ATOM     26  H           0     133.682 136.621 138.727  0.00  0.00     0.161 HD
ATOM     27  H           0     133.645 136.431 140.396  0.00  0.00     0.161 HD
ATOM     28  O           0     132.797 134.133 140.327  0.00  0.00    -0.239 OA
ENDBRANCH  23  24
ENDBRANCH  22  23
ENDBRANCH   6  22
BRANCH  19  29
ATOM     29  O           0     134.601 136.435 132.480  0.00  0.00    -0.362 OA
ATOM     30  H           0     135.237 136.034 131.871  0.00  0.00     0.213 HD
ENDBRANCH  19  29
BRANCH  19  31
ATOM     31  O           0     135.037 135.770 134.689  0.00  0.00    -0.362 OA
ATOM     32  H           0     134.626 135.255 135.398  0.00  0.00     0.213 HD
ENDBRANCH  19  31
TORSDOF 5
ENDMDL
MODEL 4
REMARK VINA RESULT:      -6.9      2.844      4.742
REMARK  5 active torsions:
REMARK  status: ('A' for Active; 'I' for Inactive)
REMARK    1  A    between atoms: C_6  and  C_7 
REMARK    2  A    between atoms: C_7  and  O_8 
REMARK    3  A    between atoms: O_8  and  C_9 
REMARK       I    between atoms: C_9  and  N_10 
REMARK    4  A    between atoms: C_24  and  O_25 
REMARK    5  A    between atoms: C_24  and  O_26 
ROOT
ATOM      1  N           0     139.652 130.609 146.027  0.00  0.00    -0.235 N 
ATOM      2  H           0     140.404 130.763 145.435  0.00  0.00     0.174 HD
ATOM      3  H           0     139.688 129.891 146.680  0.00  0.00     0.174 HD
ATOM      4  C           0     138.596 131.368 145.952  0.00  0.00     0.672 C 
ATOM      5  N           0     138.500 132.407 145.042  0.00  0.00    -0.218 N 
ATOM      6  C           0     137.173 132.792 144.569  0.00  0.00     0.151 C 
ATOM      7  C           0     136.195 133.032 145.703  0.00  0.00     0.180 C 
ATOM      8  N           0     136.474 134.349 146.315  0.00  0.00    -0.215 N 
ATOM      9  C           0     136.325 134.214 147.674  0.00  0.00     0.672 C 
ATOM     10  N           0     136.136 135.211 148.493  0.00  0.00    -0.235 N 
ATOM     11  H           0     136.093 136.117 148.150  0.00  0.00     0.174 HD
ATOM     12  H           0     136.039 135.046 149.443  0.00  0.00     0.174 HD
ATOM     13  C           0     136.333 132.055 146.860  0.00  0.00     0.219 C 
ATOM     14  N           0     136.401 132.901 148.064  0.00  0.00    -0.187 N 
ATOM     15  C           0     136.523 132.421 149.443  0.00  0.00     0.171 C 
ATOM     16  N           0     137.507 131.186 146.764  0.00  0.00    -0.183 N 
ATOM     17  C           0     137.234 130.059 147.674  0.00  0.00     0.150 C 
ATOM     18  C           0     135.724 129.778 147.494  0.00  0.00     0.093 C 
ATOM     19  C           0     135.128 131.104 146.957  0.00  0.00     0.210 C 
ATOM     20  H           0     139.293 132.869 144.729  0.00  0.00     0.178 HD
ATOM     21  H           0     136.717 135.160 145.843  0.00  0.00     0.178 HD
ENDROOT
BRANCH   6  22
ATOM     22  C           0     136.625 131.678 143.675  0.00  0.00     0.208 C 
BRANCH  22  23
ATOM     23  O           0     135.320 132.061 143.169  0.00  0.00    -0.302 OA
BRANCH  23  24
ATOM     24  C           0     135.210 133.077 142.293  0.00  0.00     0.358 C 
ATOM     25  N           0     135.892 133.043 141.130  0.00  0.00    -0.346 N 
ATOM     26  H           0     136.462 132.286 140.926  0.00  0.00     0.161 HD
ATOM     27  H           0     135.813 133.775 140.499  0.00  0.00     0.161 HD
ATOM     28  O           0     134.494 134.027 142.549  0.00  0.00    -0.239 OA
ENDBRANCH  23  24
ENDBRANCH  22  23
ENDBRANCH   6  22
BRANCH  19  29
ATOM     29  O           0     134.153 131.617 147.867  0.00  0.00    -0.362 OA
ATOM     30  H           0     134.547 132.392 148.291  0.00  0.00     0.213 HD
ENDBRANCH  19  29
BRANCH  19  31
ATOM     31  O           0     134.549 130.903 145.666  0.00  0.00    -0.362 OA
ATOM     32  H           0     133.662 131.289 145.694  0.00  0.00     0.213 HD
ENDBRANCH  19  31
TORSDOF 5
ENDMDL
MODEL 5
REMARK VINA RESULT:      -6.9      2.958      4.479
REMARK  5 active torsions:
REMARK  status: ('A' for Active; 'I' for Inactive)
REMARK    1  A    between atoms: C_6  and  C_7 
REMARK    2  A    between atoms: C_7  and  O_8 
REMARK    3  A    between atoms: O_8  and  C_9 
REMARK       I    between atoms: C_9  and  N_10 
REMARK    4  A    between atoms: C_24  and  O_25 
REMARK    5  A    between atoms: C_24  and  O_26 
ROOT
ATOM      1  N           0     136.077 134.646 147.259  0.00  0.00    -0.235 N 
ATOM      2  H           0     135.615 135.366 146.803  0.00  0.00     0.174 HD
ATOM      3  H           0     136.555 134.824 148.085  0.00  0.00     0.174 HD
ATOM      4  C           0     136.052 133.440 146.768  0.00  0.00     0.672 C 
ATOM      5  N           0     135.380 133.136 145.597  0.00  0.00    -0.218 N 
ATOM      6  C           0     135.868 132.022 144.788  0.00  0.00     0.151 C 
ATOM      7  C           0     136.058 130.753 145.596  0.00  0.00     0.180 C 
ATOM      8  N           0     134.739 130.132 145.844  0.00  0.00    -0.215 N 
ATOM      9  C           0     134.744 129.648 147.129  0.00  0.00     0.672 C 
ATOM     10  N           0     133.919 128.742 147.574  0.00  0.00    -0.235 N 
ATOM     11  H           0     133.247 128.367 146.983  0.00  0.00     0.174 HD
ATOM     12  H           0     133.976 128.444 148.495  0.00  0.00     0.174 HD
ATOM     13  C           0     136.622 130.981 146.989  0.00  0.00     0.219 C 
ATOM     14  N           0     135.724 130.236 147.889  0.00  0.00    -0.187 N 
ATOM     15  C           0     135.859 130.135 149.344  0.00  0.00     0.171 C 
ATOM     16  N           0     136.695 132.392 147.374  0.00  0.00    -0.183 N 
ATOM     17  C           0     137.644 132.440 148.500  0.00  0.00     0.150 C 
ATOM     18  C           0     138.739 131.414 148.123  0.00  0.00     0.093 C 
ATOM     19  C           0     138.058 130.446 147.123  0.00  0.00     0.210 C 
ATOM     20  H           0     134.604 133.649 145.321  0.00  0.00     0.178 HD
ATOM     21  H           0     134.004 130.077 145.214  0.00  0.00     0.178 HD
ENDROOT
BRANCH   6  22
ATOM     22  C           0     137.209 132.414 144.165  0.00  0.00     0.208 C 
BRANCH  22  23
ATOM     23  O           0     136.985 133.375 143.100  0.00  0.00    -0.302 OA
BRANCH  23  24
ATOM     24  C           0     137.502 134.614 143.192  0.00  0.00     0.358 C 
ATOM     25  N           0     136.721 135.644 143.577  0.00  0.00    -0.346 N 
ATOM     26  H           0     135.787 135.491 143.787  0.00  0.00     0.161 HD
ATOM     27  H           0     137.094 136.537 143.643  0.00  0.00     0.161 HD
ATOM     28  O           0     138.673 134.806 142.929  0.00  0.00    -0.239 OA
ENDBRANCH  23  24
ENDBRANCH  22  23
ENDBRANCH   6  22
BRANCH  19  29
ATOM     29  O           0     138.054 129.115 147.643  0.00  0.00    -0.362 OA
ATOM     30  H           0     138.199 129.187 148.596  0.00  0.00     0.213 HD
ENDBRANCH  19  29
BRANCH  19  31
ATOM     31  O           0     138.723 130.487 145.859  0.00  0.00    -0.362 OA
ATOM     32  H           0     138.415 129.719 145.357  0.00  0.00     0.213 HD
ENDBRANCH  19  31
TORSDOF 5
ENDMDL
MODEL 6
REMARK VINA RESULT:      -6.8      4.602      6.816
REMARK  5 active torsions:
REMARK  status: ('A' for Active; 'I' for Inactive)
REMARK    1  A    between atoms: C_6  and  C_7 
REMARK    2  A    between atoms: C_7  and  O_8 
REMARK    3  A    between atoms: O_8  and  C_9 
REMARK       I    between atoms: C_9  and  N_10 
REMARK    4  A    between atoms: C_24  and  O_25 
REMARK    5  A    between atoms: C_24  and  O_26 
ROOT
ATOM      1  N           0     134.530 132.141 149.521  0.00  0.00    -0.235 N 
ATOM      2  H           0     134.125 131.855 150.354  0.00  0.00     0.174 HD
ATOM      3  H           0     134.463 133.068 149.241  0.00  0.00     0.174 HD
ATOM      4  C           0     135.172 131.282 148.779  0.00  0.00     0.672 C 
ATOM      5  N           0     135.300 129.951 149.137  0.00  0.00    -0.218 N 
ATOM      6  C           0     135.439 128.959 148.075  0.00  0.00     0.151 C 
ATOM      7  C           0     136.530 129.314 147.083  0.00  0.00     0.180 C 
ATOM      8  N           0     137.848 129.013 147.682  0.00  0.00    -0.215 N 
ATOM      9  C           0     138.708 130.021 147.321  0.00  0.00     0.672 C 
ATOM     10  N           0     140.007 129.922 147.352  0.00  0.00    -0.235 N 
ATOM     11  H           0     140.423 129.096 147.643  0.00  0.00     0.174 HD
ATOM     12  H           0     140.557 130.674 147.084  0.00  0.00     0.174 HD
ATOM     13  C           0     136.611 130.795 146.751  0.00  0.00     0.219 C 
ATOM     14  N           0     138.030 131.147 146.925  0.00  0.00    -0.187 N 
ATOM     15  C           0     138.619 132.471 146.706  0.00  0.00     0.171 C 
ATOM     16  N           0     135.756 131.637 147.592  0.00  0.00    -0.183 N 
ATOM     17  C           0     135.619 132.909 146.859  0.00  0.00     0.150 C 
ATOM     18  C           0     135.513 132.486 145.375  0.00  0.00     0.093 C 
ATOM     19  C           0     136.173 131.085 145.305  0.00  0.00     0.210 C 
ATOM     20  H           0     135.298 129.685 150.070  0.00  0.00     0.178 HD
ATOM     21  H           0     138.065 128.243 148.229  0.00  0.00     0.178 HD
ENDROOT
BRANCH   6  22
ATOM     22  C           0     134.110 128.848 147.325  0.00  0.00     0.208 C 
BRANCH  22  23
ATOM     23  O           0     133.167 128.086 148.123  0.00  0.00    -0.302 OA
BRANCH  23  24
ATOM     24  C           0     132.240 127.319 147.519  0.00  0.00     0.358 C 
ATOM     25  N           0     132.586 126.122 147.005  0.00  0.00    -0.346 N 
ATOM     26  H           0     133.502 125.814 147.071  0.00  0.00     0.161 HD
ATOM     27  H           0     131.917 125.570 146.570  0.00  0.00     0.161 HD
ATOM     28  O           0     131.090 127.707 147.437  0.00  0.00    -0.239 OA
ENDBRANCH  23  24
ENDBRANCH  22  23
ENDBRANCH   6  22
BRANCH  19  29
ATOM     29  O           0     137.304 131.111 144.432  0.00  0.00    -0.362 OA
ATOM     30  H           0     136.965 131.015 143.532  0.00  0.00     0.213 HD
ENDBRANCH  19  29
BRANCH  19  31
ATOM     31  O           0     135.226 130.110 144.868  0.00  0.00    -0.362 OA
ATOM     32  H           0     134.431 130.231 145.405  0.00  0.00     0.213 HD
ENDBRANCH  19  31
TORSDOF 5
ENDMDL
MODEL 7
REMARK VINA RESULT:      -6.7      2.483      4.029
REMARK  5 active torsions:
REMARK  status: ('A' for Active; 'I' for Inactive)
REMARK    1  A    between atoms: C_6  and  C_7 
REMARK    2  A    between atoms: C_7  and  O_8 
REMARK    3  A    between atoms: O_8  and  C_9 
REMARK       I    between atoms: C_9  and  N_10 
REMARK    4  A    between atoms: C_24  and  O_25 
REMARK    5  A    between atoms: C_24  and  O_26 
ROOT
ATOM      1  N           0     135.107 130.493 143.371  0.00  0.00    -0.235 N 
ATOM      2  H           0     134.936 130.347 142.428  0.00  0.00     0.174 HD
ATOM      3  H           0     134.666 129.940 144.036  0.00  0.00     0.174 HD
ATOM      4  C           0     135.934 131.428 143.747  0.00  0.00     0.672 C 
ATOM      5  N           0     136.591 132.239 142.838  0.00  0.00    -0.218 N 
ATOM      6  C           0     136.970 133.585 143.259  0.00  0.00     0.151 C 
ATOM      7  C           0     137.728 133.595 144.572  0.00  0.00     0.180 C 
ATOM      8  N           0     139.121 133.164 144.332  0.00  0.00    -0.215 N 
ATOM      9  C           0     139.494 132.362 145.382  0.00  0.00     0.672 C 
ATOM     10  N           0     140.730 132.098 145.701  0.00  0.00    -0.235 N 
ATOM     11  H           0     141.456 132.479 145.181  0.00  0.00     0.174 HD
ATOM     12  H           0     140.925 131.522 146.456  0.00  0.00     0.174 HD
ATOM     13  C           0     137.209 132.599 145.597  0.00  0.00     0.219 C 
ATOM     14  N           0     138.404 131.871 146.056  0.00  0.00    -0.187 N 
ATOM     15  C           0     138.425 130.807 147.064  0.00  0.00     0.171 C 
ATOM     16  N           0     136.204 131.675 145.068  0.00  0.00    -0.183 N 
ATOM     17  C           0     135.518 131.125 146.251  0.00  0.00     0.150 C 
ATOM     18  C           0     135.410 132.324 147.223  0.00  0.00     0.093 C 
ATOM     19  C           0     136.533 133.299 146.788  0.00  0.00     0.210 C 
ATOM     20  H           0     136.796 131.920 141.945  0.00  0.00     0.178 HD
ATOM     21  H           0     139.672 133.405 143.571  0.00  0.00     0.178 HD
ENDROOT
BRANCH   6  22
ATOM     22  C           0     135.703 134.428 143.415  0.00  0.00     0.208 C 
BRANCH  22  23
ATOM     23  O           0     134.729 134.029 142.415  0.00  0.00    -0.302 OA
BRANCH  23  24
ATOM     24  C           0     133.995 134.962 141.781  0.00  0.00     0.358 C 
ATOM     25  N           0     134.113 136.261 142.123  0.00  0.00    -0.346 N 
ATOM     26  H           0     134.727 136.522 142.826  0.00  0.00     0.161 HD
ATOM     27  H           0     133.583 136.933 141.667  0.00  0.00     0.161 HD
ATOM     28  O           0     133.224 134.634 140.899  0.00  0.00    -0.239 OA
ENDBRANCH  23  24
ENDBRANCH  22  23
ENDBRANCH   6  22
BRANCH  19  29
ATOM     29  O           0     137.465 133.491 147.854  0.00  0.00    -0.362 OA
ATOM     30  H           0     137.453 132.683 148.385  0.00  0.00     0.213 HD
ENDBRANCH  19  29
BRANCH  19  31
ATOM     31  O           0     135.978 134.550 146.379  0.00  0.00    -0.362 OA
ATOM     32  H           0     135.786 134.475 145.434  0.00  0.00     0.213 HD
ENDBRANCH  19  31
TORSDOF 5
ENDMDL
MODEL 8
REMARK VINA RESULT:      -6.6      2.736      4.772
REMARK  5 active torsions:
REMARK  status: ('A' for Active; 'I' for Inactive)
REMARK    1  A    between atoms: C_6  and  C_7 
REMARK    2  A    between atoms: C_7  and  O_8 
REMARK    3  A    between atoms: O_8  and  C_9 
REMARK       I    between atoms: C_9  and  N_10 
REMARK    4  A    between atoms: C_24  and  O_25 
REMARK    5  A    between atoms: C_24  and  O_26 
ROOT
ATOM      1  N           0     134.941 129.579 145.893  0.00  0.00    -0.235 N 
ATOM      2  H           0     134.600 129.088 145.130  0.00  0.00     0.174 HD
ATOM      3  H           0     134.711 129.298 146.793  0.00  0.00     0.174 HD
ATOM      4  C           0     135.714 130.612 145.711  0.00  0.00     0.672 C 
ATOM      5  N           0     136.075 131.048 144.448  0.00  0.00    -0.218 N 
ATOM      6  C           0     136.373 132.466 144.264  0.00  0.00     0.151 C 
ATOM      7  C           0     137.376 132.988 145.274  0.00  0.00     0.180 C 
ATOM      8  N           0     138.732 132.543 144.887  0.00  0.00    -0.215 N 
ATOM      9  C           0     139.400 132.201 146.038  0.00  0.00     0.672 C 
ATOM     10  N           0     140.697 132.114 146.133  0.00  0.00    -0.235 N 
ATOM     11  H           0     141.253 132.298 145.360  0.00  0.00     0.174 HD
ATOM     12  H           0     141.106 131.867 146.977  0.00  0.00     0.174 HD
ATOM     13  C           0     137.195 132.428 146.676  0.00  0.00     0.219 C 
ATOM     14  N           0     138.534 131.961 147.074  0.00  0.00    -0.187 N 
ATOM     15  C           0     138.881 131.350 148.360  0.00  0.00     0.171 C 
ATOM     16  N           0     136.216 131.341 146.757  0.00  0.00    -0.183 N 
ATOM     17  C           0     135.853 131.249 148.182  0.00  0.00     0.150 C 
ATOM     18  C           0     135.807 132.719 148.663  0.00  0.00     0.093 C 
ATOM     19  C           0     136.699 133.498 147.663  0.00  0.00     0.210 C 
ATOM     20  H           0     136.129 130.427 143.704  0.00  0.00     0.178 HD
ATOM     21  H           0     139.085 132.502 143.985  0.00  0.00     0.178 HD
ENDROOT
BRANCH   6  22
ATOM     22  C           0     135.076 133.265 144.399  0.00  0.00     0.208 C 
BRANCH  22  23
ATOM     23  O           0     135.366 134.682 144.275  0.00  0.00    -0.302 OA
BRANCH  23  24
ATOM     24  C           0     134.806 135.399 143.282  0.00  0.00     0.358 C 
ATOM     25  N           0     135.081 136.713 143.161  0.00  0.00    -0.346 N 
ATOM     26  H           0     135.683 137.141 143.789  0.00  0.00     0.161 HD
ATOM     27  H           0     134.677 137.230 142.446  0.00  0.00     0.161 HD
ATOM     28  O           0     134.051 134.861 142.495  0.00  0.00    -0.239 OA
ENDBRANCH  23  24
ENDBRANCH  22  23
ENDBRANCH   6  22
BRANCH  19  29
ATOM     29  O           0     137.800 134.102 148.345  0.00  0.00    -0.362 OA
ATOM     30  H           0     138.449 133.403 148.503  0.00  0.00     0.213 HD
ENDBRANCH  19  29
BRANCH  19  31
ATOM     31  O           0     135.932 134.488 146.978  0.00  0.00    -0.362 OA
ATOM     32  H           0     136.177 134.435 146.043  0.00  0.00     0.213 HD
ENDBRANCH  19  31
TORSDOF 5
ENDMDL
MODEL 9
REMARK VINA RESULT:      -6.6      8.733     10.646
REMARK  5 active torsions:
REMARK  status: ('A' for Active; 'I' for Inactive)
REMARK    1  A    between atoms: C_6  and  C_7 
REMARK    2  A    between atoms: C_7  and  O_8 
REMARK    3  A    between atoms: O_8  and  C_9 
REMARK       I    between atoms: C_9  and  N_10 
REMARK    4  A    between atoms: C_24  and  O_25 
REMARK    5  A    between atoms: C_24  and  O_26 
ROOT
ATOM      1  N           0     129.400 133.001 131.835  0.00  0.00    -0.235 N 
ATOM      2  H           0     128.721 132.319 131.952  0.00  0.00     0.174 HD
ATOM      3  H           0     129.414 133.537 131.026  0.00  0.00     0.174 HD
ATOM      4  C           0     130.288 133.204 132.766  0.00  0.00     0.672 C 
ATOM      5  N           0     130.306 132.470 133.939  0.00  0.00    -0.218 N 
ATOM      6  C           0     131.585 132.278 134.617  0.00  0.00     0.151 C 
ATOM      7  C           0     132.333 133.579 134.834  0.00  0.00     0.180 C 
ATOM      8  N           0     131.723 134.308 135.966  0.00  0.00    -0.215 N 
ATOM      9  C           0     131.707 135.642 135.640  0.00  0.00     0.672 C 
ATOM     10  N           0     131.585 136.606 136.509  0.00  0.00    -0.235 N 
ATOM     11  H           0     131.499 136.400 137.453  0.00  0.00     0.174 HD
ATOM     12  H           0     131.581 137.529 136.211  0.00  0.00     0.174 HD
ATOM     13  C           0     132.230 134.556 133.673  0.00  0.00     0.219 C 
ATOM     14  N           0     131.834 135.835 134.288  0.00  0.00    -0.187 N 
ATOM     15  C           0     131.620 137.098 133.577  0.00  0.00     0.171 C 
ATOM     16  N           0     131.271 134.152 132.643  0.00  0.00    -0.183 N 
ATOM     17  C           0     131.629 134.935 131.447  0.00  0.00     0.150 C 
ATOM     18  C           0     133.176 134.970 131.462  0.00  0.00     0.093 C 
ATOM     19  C           0     133.571 134.721 132.939  0.00  0.00     0.210 C 
ATOM     20  H           0     129.488 132.094 134.303  0.00  0.00     0.178 HD
ATOM     21  H           0     131.394 133.915 136.789  0.00  0.00     0.178 HD
ENDROOT
BRANCH   6  22
ATOM     22  C           0     132.455 131.345 133.773  0.00  0.00     0.208 C 
BRANCH  22  23
ATOM     23  O           0     133.556 130.849 134.579  0.00  0.00    -0.302 OA
BRANCH  23  24
ATOM     24  C           0     134.586 130.211 133.993  0.00  0.00     0.358 C 
ATOM     25  N           0     135.622 130.917 133.496  0.00  0.00    -0.346 N 
ATOM     26  H           0     135.624 131.884 133.562  0.00  0.00     0.161 HD
ATOM     27  H           0     136.364 130.457 133.073  0.00  0.00     0.161 HD
ATOM     28  O           0     134.582 128.998 133.910  0.00  0.00    -0.239 OA
ENDBRANCH  23  24
ENDBRANCH  22  23
ENDBRANCH   6  22
BRANCH  19  29
ATOM     29  O           0     134.294 135.840 133.457  0.00  0.00    -0.362 OA
ATOM     30  H           0     134.128 135.864 134.409  0.00  0.00     0.213 HD
ENDBRANCH  19  29
BRANCH  19  31
ATOM     31  O           0     134.349 133.529 133.052  0.00  0.00    -0.362 OA
ATOM     32  H           0     134.449 133.348 133.998  0.00  0.00     0.213 HD
ENDBRANCH  19  31
TORSDOF 5
ENDMDL
