MODEL 1
REMARK VINA RESULT:      -7.4      0.000      0.000
REMARK  5 active torsions:
REMARK  status: ('A' for Active; 'I' for Inactive)
REMARK    1  A    between atoms: C_6  and  C_7 
REMARK    2  A    between atoms: C_7  and  O_8 
REMARK    3  A    between atoms: O_8  and  C_9 
REMARK    4  A    between atoms: C_24  and  O_25 
REMARK    5  A    between atoms: C_24  and  O_26 
ROOT
ATOM      1  N           0     134.687 131.932 146.569  0.00  0.00    -0.235 N 
ATOM      2  H           0     134.937 132.006 147.504  0.00  0.00     0.174 HD
ATOM      3  H           0     134.017 131.287 146.297  0.00  0.00     0.174 HD
ATOM      4  C           0     135.249 132.704 145.682  0.00  0.00     0.672 C 
ATOM      5  N           0     136.206 133.642 146.024  0.00  0.00    -0.218 N 
ATOM      6  C           0     137.215 133.999 145.030  0.00  0.00     0.151 C 
ATOM      7  C           0     136.607 134.377 143.693  0.00  0.00     0.180 C 
ATOM      8  N           0     136.069 135.751 143.776  0.00  0.00    -0.216 N 
ATOM      9  C           0     134.879 135.774 143.090  0.00  0.00     0.670 C 
ATOM     10  N           0     134.310 136.860 142.647  0.00  0.00    -0.235 N 
ATOM     11  H           0     134.728 137.721 142.795  0.00  0.00     0.174 HD
ATOM     12  H           0     133.468 136.804 142.168  0.00  0.00     0.174 HD
ATOM     13  C           0     135.403 133.538 143.298  0.00  0.00     0.217 C 
ATOM     14  N           0     134.363 134.512 142.929  0.00  0.00    -0.191 N 
ATOM     15  N           0     134.933 132.632 144.347  0.00  0.00    -0.179 N 
ATOM     16  C           0     134.114 131.608 143.681  0.00  0.00     0.106 C 
ATOM     17  C           0     132.637 132.006 143.729  0.00  0.00     0.033 C 
ATOM     18  C           0     134.596 131.538 142.216  0.00  0.00     0.098 C 
ATOM     19  C           0     135.710 132.615 142.103  0.00  0.00     0.210 C 
ATOM     20  H           0     136.206 134.055 146.902  0.00  0.00     0.178 HD
ATOM     21  H           0     136.482 136.501 144.232  0.00  0.00     0.178 HD
ATOM     22  H           0     133.469 134.298 142.621  0.00  0.00     0.180 HD
ENDROOT
BRANCH   6  23
ATOM     23  C           0     138.151 132.806 144.825  0.00  0.00     0.206 C 
BRANCH  23  24
ATOM     24  O           0     138.805 132.483 146.081  0.00  0.00    -0.320 OA
BRANCH  24  25
ATOM     25  C           0     138.769 131.227 146.554  0.00  0.00     0.254 C 
ATOM     26  C           0     140.052 130.496 146.851  0.00  0.00     0.126 C 
ATOM     27  O           0     137.706 130.684 146.742  0.00  0.00    -0.266 OA
ENDBRANCH  24  25
ENDBRANCH  23  24
ENDBRANCH   6  23
BRANCH  19  28
ATOM     28  O           0     135.607 133.322 140.865  0.00  0.00    -0.362 OA
ATOM     29  H           0     136.498 133.623 140.639  0.00  0.00     0.213 HD
ENDBRANCH  19  28
BRANCH  19  30
ATOM     30  O           0     137.003 132.023 142.244  0.00  0.00    -0.362 OA
ATOM     31  H           0     137.649 132.700 141.997  0.00  0.00     0.213 HD
ENDBRANCH  19  30
TORSDOF 5
ENDMDL
MODEL 2
REMARK VINA RESULT:      -6.3      3.284      5.594
REMARK  5 active torsions:
REMARK  status: ('A' for Active; 'I' for Inactive)
REMARK    1  A    between atoms: C_6  and  C_7 
REMARK    2  A    between atoms: C_7  and  O_8 
REMARK    3  A    between atoms: O_8  and  C_9 
REMARK    4  A    between atoms: C_24  and  O_25 
REMARK    5  A    between atoms: C_24  and  O_26 
ROOT
ATOM      1  N           0     137.401 128.562 147.667  0.00  0.00    -0.235 N 
ATOM      2  H           0     137.141 127.630 147.745  0.00  0.00     0.174 HD
ATOM      3  H           0     138.242 128.864 148.044  0.00  0.00     0.174 HD
ATOM      4  C           0     136.623 129.405 147.049  0.00  0.00     0.672 C 
ATOM      5  N           0     135.418 129.020 146.490  0.00  0.00    -0.218 N 
ATOM      6  C           0     134.348 130.010 146.398  0.00  0.00     0.151 C 
ATOM      7  C           0     134.804 131.301 145.748  0.00  0.00     0.180 C 
ATOM      8  N           0     134.877 131.109 144.285  0.00  0.00    -0.216 N 
ATOM      9  C           0     135.998 131.763 143.835  0.00  0.00     0.670 C 
ATOM     10  N           0     136.192 132.115 142.595  0.00  0.00    -0.235 N 
ATOM     11  H           0     135.521 131.915 141.924  0.00  0.00     0.174 HD
ATOM     12  H           0     137.008 132.577 142.345  0.00  0.00     0.174 HD
ATOM     13  C           0     136.211 131.727 146.131  0.00  0.00     0.217 C 
ATOM     14  N           0     136.887 132.002 144.853  0.00  0.00    -0.191 N 
ATOM     15  N           0     136.945 130.734 146.917  0.00  0.00    -0.179 N 
ATOM     16  C           0     138.047 131.452 147.575  0.00  0.00     0.106 C 
ATOM     17  C           0     139.320 131.341 146.735  0.00  0.00     0.033 C 
ATOM     18  C           0     137.611 132.928 147.686  0.00  0.00     0.098 C 
ATOM     19  C           0     136.213 132.991 147.011  0.00  0.00     0.210 C 
ATOM     20  H           0     135.287 128.115 146.166  0.00  0.00     0.178 HD
ATOM     21  H           0     134.247 130.610 143.740  0.00  0.00     0.178 HD
ATOM     22  H           0     137.803 132.303 144.748  0.00  0.00     0.180 HD
ENDROOT
BRANCH   6  23
ATOM     23  C           0     133.839 130.319 147.808  0.00  0.00     0.206 C 
BRANCH  23  24
ATOM     24  O           0     132.820 131.352 147.739  0.00  0.00    -0.320 OA
BRANCH  24  25
ATOM     25  C           0     131.816 131.366 148.630  0.00  0.00     0.254 C 
ATOM     26  C           0     130.585 130.531 148.391  0.00  0.00     0.126 C 
ATOM     27  O           0     131.901 132.048 149.624  0.00  0.00    -0.266 OA
ENDBRANCH  24  25
ENDBRANCH  23  24
ENDBRANCH   6  23
BRANCH  19  28
ATOM     28  O           0     136.085 134.173 146.218  0.00  0.00    -0.362 OA
ATOM     29  H           0     135.749 133.896 145.355  0.00  0.00     0.213 HD
ENDBRANCH  19  28
BRANCH  19  30
ATOM     30  O           0     135.175 132.923 147.992  0.00  0.00    -0.362 OA
ATOM     31  H           0     134.804 132.031 147.945  0.00  0.00     0.213 HD
ENDBRANCH  19  30
TORSDOF 5
ENDMDL
MODEL 3
REMARK VINA RESULT:      -6.3     10.094     11.668
REMARK  5 active torsions:
REMARK  status: ('A' for Active; 'I' for Inactive)
REMARK    1  A    between atoms: C_6  and  C_7 
REMARK    2  A    between atoms: C_7  and  O_8 
REMARK    3  A    between atoms: O_8  and  C_9 
REMARK    4  A    between atoms: C_24  and  O_25 
REMARK    5  A    between atoms: C_24  and  O_26 
ROOT
ATOM      1  N           0     129.081 132.809 132.309  0.00  0.00    -0.235 N 
ATOM      2  H           0     128.520 132.051 132.540  0.00  0.00     0.174 HD
ATOM      3  H           0     128.909 133.309 131.497  0.00  0.00     0.174 HD
ATOM      4  C           0     130.061 133.157 133.095  0.00  0.00     0.672 C 
ATOM      5  N           0     130.341 132.478 134.266  0.00  0.00    -0.218 N 
ATOM      6  C           0     131.720 132.463 134.746  0.00  0.00     0.151 C 
ATOM      7  C           0     132.325 133.852 134.823  0.00  0.00     0.180 C 
ATOM      8  N           0     131.814 134.537 136.029  0.00  0.00    -0.216 N 
ATOM      9  C           0     131.575 135.847 135.692  0.00  0.00     0.670 C 
ATOM     10  N           0     131.468 136.818 136.556  0.00  0.00    -0.235 N 
ATOM     11  H           0     131.557 136.635 137.504  0.00  0.00     0.174 HD
ATOM     12  H           0     131.299 137.722 136.250  0.00  0.00     0.174 HD
ATOM     13  C           0     131.919 134.770 133.683  0.00  0.00     0.217 C 
ATOM     14  N           0     131.463 136.009 134.334  0.00  0.00    -0.191 N 
ATOM     15  N           0     130.885 134.218 132.807  0.00  0.00    -0.179 N 
ATOM     16  C           0     130.947 134.982 131.552  0.00  0.00     0.106 C 
ATOM     17  C           0     129.935 136.129 131.586  0.00  0.00     0.033 C 
ATOM     18  C           0     132.380 135.543 131.444  0.00  0.00     0.098 C 
ATOM     19  C           0     133.099 135.074 132.739  0.00  0.00     0.210 C 
ATOM     20  H           0     129.640 132.023 134.757  0.00  0.00     0.178 HD
ATOM     21  H           0     131.673 134.135 136.901  0.00  0.00     0.178 HD
ATOM     22  H           0     131.142 136.804 133.880  0.00  0.00     0.180 HD
ENDROOT
BRANCH   6  23
ATOM     23  C           0     132.565 131.610 133.799  0.00  0.00     0.206 C 
BRANCH  23  24
ATOM     24  O           0     133.938 131.576 134.270  0.00  0.00    -0.320 OA
BRANCH  24  25
ATOM     25  C           0     134.771 130.611 133.848  0.00  0.00     0.254 C 
ATOM     26  C           0     135.796 130.912 132.786  0.00  0.00     0.126 C 
ATOM     27  O           0     134.697 129.501 134.320  0.00  0.00    -0.266 OA
ENDBRANCH  24  25
ENDBRANCH  23  24
ENDBRANCH   6  23
BRANCH  19  28
ATOM     28  O           0     133.927 136.114 133.265  0.00  0.00    -0.362 OA
ATOM     29  H           0     133.406 136.574 133.936  0.00  0.00     0.213 HD
ENDBRANCH  19  28
BRANCH  19  30
ATOM     30  O           0     133.864 133.891 132.494  0.00  0.00    -0.362 OA
ATOM     31  H           0     133.258 133.240 132.113  0.00  0.00     0.213 HD
ENDBRANCH  19  30
TORSDOF 5
ENDMDL
MODEL 4
REMARK VINA RESULT:      -6.3      2.690      5.351
REMARK  5 active torsions:
REMARK  status: ('A' for Active; 'I' for Inactive)
REMARK    1  A    between atoms: C_6  and  C_7 
REMARK    2  A    between atoms: C_7  and  O_8 
REMARK    3  A    between atoms: O_8  and  C_9 
REMARK    4  A    between atoms: C_24  and  O_25 
REMARK    5  A    between atoms: C_24  and  O_26 
ROOT
ATOM      1  N           0     139.086 130.500 145.875  0.00  0.00    -0.235 N 
ATOM      2  H           0     139.704 130.566 145.129  0.00  0.00     0.174 HD
ATOM      3  H           0     139.237 129.843 146.572  0.00  0.00     0.174 HD
ATOM      4  C           0     138.059 131.299 145.943  0.00  0.00     0.672 C 
ATOM      5  N           0     137.806 132.256 144.978  0.00  0.00    -0.218 N 
ATOM      6  C           0     136.421 132.653 144.740  0.00  0.00     0.151 C 
ATOM      7  C           0     135.698 133.036 146.016  0.00  0.00     0.180 C 
ATOM      8  N           0     136.115 134.395 146.421  0.00  0.00    -0.216 N 
ATOM      9  C           0     136.250 134.398 147.788  0.00  0.00     0.670 C 
ATOM     10  N           0     136.250 135.476 148.522  0.00  0.00    -0.235 N 
ATOM     11  H           0     136.151 136.346 148.105  0.00  0.00     0.174 HD
ATOM     12  H           0     136.349 135.407 149.484  0.00  0.00     0.174 HD
ATOM     13  C           0     136.054 132.173 147.215  0.00  0.00     0.217 C 
ATOM     14  N           0     136.384 133.126 148.287  0.00  0.00    -0.191 N 
ATOM     15  N           0     137.156 131.240 146.977  0.00  0.00    -0.179 N 
ATOM     16  C           0     137.062 130.206 148.018  0.00  0.00     0.106 C 
ATOM     17  C           0     137.971 130.566 149.196  0.00  0.00     0.033 C 
ATOM     18  C           0     135.589 130.170 148.478  0.00  0.00     0.098 C 
ATOM     19  C           0     134.879 131.277 147.651  0.00  0.00     0.210 C 
ATOM     20  H           0     138.531 132.655 144.471  0.00  0.00     0.178 HD
ATOM     21  H           0     136.267 135.148 145.829  0.00  0.00     0.178 HD
ATOM     22  H           0     136.648 132.895 149.191  0.00  0.00     0.180 HD
ENDROOT
BRANCH   6  23
ATOM     23  C           0     135.679 131.487 144.083  0.00  0.00     0.206 C 
BRANCH  23  24
ATOM     24  O           0     134.261 131.793 144.015  0.00  0.00    -0.320 OA
BRANCH  24  25
ATOM     25  C           0     133.699 132.116 142.839  0.00  0.00     0.254 C 
ATOM     26  C           0     133.629 133.559 142.408  0.00  0.00     0.126 C 
ATOM     27  O           0     133.250 131.250 142.127  0.00  0.00    -0.266 OA
ENDBRANCH  24  25
ENDBRANCH  23  24
ENDBRANCH   6  23
BRANCH  19  28
ATOM     28  O           0     133.951 132.000 148.463  0.00  0.00    -0.362 OA
ATOM     29  H           0     133.249 131.381 148.705  0.00  0.00     0.213 HD
ENDBRANCH  19  28
BRANCH  19  30
ATOM     30  O           0     134.225 130.715 146.510  0.00  0.00    -0.362 OA
ATOM     31  H           0     133.883 131.457 145.990  0.00  0.00     0.213 HD
ENDBRANCH  19  30
TORSDOF 5
ENDMDL
MODEL 5
REMARK VINA RESULT:      -6.3     10.000     12.700
REMARK  5 active torsions:
REMARK  status: ('A' for Active; 'I' for Inactive)
REMARK    1  A    between atoms: C_6  and  C_7 
REMARK    2  A    between atoms: C_7  and  O_8 
REMARK    3  A    between atoms: O_8  and  C_9 
REMARK    4  A    between atoms: C_24  and  O_25 
REMARK    5  A    between atoms: C_24  and  O_26 
ROOT
ATOM      1  N           0     128.700 133.590 131.466  0.00  0.00    -0.235 N 
ATOM      2  H           0     127.873 133.240 131.097  0.00  0.00     0.174 HD
ATOM      3  H           0     129.016 134.467 131.200  0.00  0.00     0.174 HD
ATOM      4  C           0     129.382 132.882 132.322  0.00  0.00     0.672 C 
ATOM      5  N           0     128.968 131.629 132.735  0.00  0.00    -0.218 N 
ATOM      6  C           0     129.984 130.662 133.140  0.00  0.00     0.151 C 
ATOM      7  C           0     130.950 131.226 134.164  0.00  0.00     0.180 C 
ATOM      8  N           0     130.300 131.236 135.491  0.00  0.00    -0.216 N 
ATOM      9  C           0     130.658 132.404 136.119  0.00  0.00     0.670 C 
ATOM     10  N           0     130.579 132.597 137.407  0.00  0.00    -0.235 N 
ATOM     11  H           0     130.249 131.890 137.983  0.00  0.00     0.174 HD
ATOM     12  H           0     130.851 133.447 137.786  0.00  0.00     0.174 HD
ATOM     13  C           0     131.325 132.679 133.929  0.00  0.00     0.217 C 
ATOM     14  N           0     131.112 133.342 135.226  0.00  0.00    -0.191 N 
ATOM     15  N           0     130.560 133.332 132.867  0.00  0.00    -0.179 N 
ATOM     16  C           0     131.330 134.519 132.464  0.00  0.00     0.106 C 
ATOM     17  C           0     130.828 135.750 133.221  0.00  0.00     0.033 C 
ATOM     18  C           0     132.803 134.237 132.829  0.00  0.00     0.098 C 
ATOM     19  C           0     132.796 132.833 133.495  0.00  0.00     0.210 C 
ATOM     20  H           0     128.026 131.399 132.757  0.00  0.00     0.178 HD
ATOM     21  H           0     129.723 130.545 135.852  0.00  0.00     0.178 HD
ATOM     22  H           0     131.267 134.280 135.416  0.00  0.00     0.180 HD
ENDROOT
BRANCH   6  23
ATOM     23  C           0     130.774 130.227 131.904  0.00  0.00     0.206 C 
BRANCH  23  24
ATOM     24  O           0     131.783 129.257 132.289  0.00  0.00    -0.320 OA
BRANCH  24  25
ATOM     25  C           0     131.460 127.958 132.395  0.00  0.00     0.254 C 
ATOM     26  C           0     130.593 127.308 131.348  0.00  0.00     0.126 C 
ATOM     27  O           0     131.865 127.311 133.332  0.00  0.00    -0.266 OA
ENDBRANCH  24  25
ENDBRANCH  23  24
ENDBRANCH   6  23
BRANCH  19  28
ATOM     28  O           0     133.674 132.802 134.622  0.00  0.00    -0.362 OA
ATOM     29  H           0     134.139 131.955 134.591  0.00  0.00     0.213 HD
ENDBRANCH  19  28
BRANCH  19  30
ATOM     30  O           0     133.148 131.822 132.547  0.00  0.00    -0.362 OA
ATOM     31  H           0     134.114 131.805 132.503  0.00  0.00     0.213 HD
ENDBRANCH  19  30
TORSDOF 5
ENDMDL
MODEL 6
REMARK VINA RESULT:      -6.2      2.265      5.309
REMARK  5 active torsions:
REMARK  status: ('A' for Active; 'I' for Inactive)
REMARK    1  A    between atoms: C_6  and  C_7 
REMARK    2  A    between atoms: C_7  and  O_8 
REMARK    3  A    between atoms: O_8  and  C_9 
REMARK    4  A    between atoms: C_24  and  O_25 
REMARK    5  A    between atoms: C_24  and  O_26 
ROOT
ATOM      1  N           0     139.090 133.231 143.299  0.00  0.00    -0.235 N 
ATOM      2  H           0     139.054 133.728 142.466  0.00  0.00     0.174 HD
ATOM      3  H           0     139.891 132.737 143.533  0.00  0.00     0.174 HD
ATOM      4  C           0     138.065 133.232 144.104  0.00  0.00     0.672 C 
ATOM      5  N           0     136.905 133.926 143.815  0.00  0.00    -0.218 N 
ATOM      6  C           0     135.643 133.422 144.352  0.00  0.00     0.151 C 
ATOM      7  C           0     135.706 133.164 145.844  0.00  0.00     0.180 C 
ATOM      8  N           0     135.604 134.451 146.564  0.00  0.00    -0.216 N 
ATOM      9  C           0     136.478 134.405 147.623  0.00  0.00     0.670 C 
ATOM     10  N           0     136.408 135.186 148.665  0.00  0.00    -0.235 N 
ATOM     11  H           0     135.706 135.852 148.724  0.00  0.00     0.174 HD
ATOM     12  H           0     137.058 135.100 149.379  0.00  0.00     0.174 HD
ATOM     13  C           0     137.028 132.585 146.319  0.00  0.00     0.217 C 
ATOM     14  N           0     137.434 133.435 147.450  0.00  0.00    -0.191 N 
ATOM     15  N           0     138.067 132.539 145.290  0.00  0.00    -0.179 N 
ATOM     16  C           0     139.070 131.567 145.750  0.00  0.00     0.106 C 
ATOM     17  C           0     140.201 132.290 146.486  0.00  0.00     0.033 C 
ATOM     18  C           0     138.345 130.601 146.711  0.00  0.00     0.098 C 
ATOM     19  C           0     136.884 131.123 146.785  0.00  0.00     0.210 C 
ATOM     20  H           0     136.927 134.729 143.271  0.00  0.00     0.178 HD
ATOM     21  H           0     135.026 135.194 146.330  0.00  0.00     0.178 HD
ATOM     22  H           0     138.237 133.326 147.983  0.00  0.00     0.180 HD
ENDROOT
BRANCH   6  23
ATOM     23  C           0     135.291 132.114 143.640  0.00  0.00     0.206 C 
BRANCH  23  24
ATOM     24  O           0     134.052 131.585 144.183  0.00  0.00    -0.320 OA
BRANCH  24  25
ATOM     25  C           0     132.932 131.603 143.444  0.00  0.00     0.254 C 
ATOM     26  C           0     132.856 132.466 142.211  0.00  0.00     0.126 C 
ATOM     27  O           0     131.985 130.926 143.767  0.00  0.00    -0.266 OA
ENDBRANCH  24  25
ENDBRANCH  23  24
ENDBRANCH   6  23
BRANCH  19  28
ATOM     28  O           0     136.387 131.053 148.123  0.00  0.00    -0.362 OA
ATOM     29  H           0     136.708 130.222 148.498  0.00  0.00     0.213 HD
ENDBRANCH  19  28
BRANCH  19  30
ATOM     30  O           0     136.040 130.392 145.891  0.00  0.00    -0.362 OA
ATOM     31  H           0     136.579 129.683 145.514  0.00  0.00     0.213 HD
ENDBRANCH  19  30
TORSDOF 5
ENDMDL
MODEL 7
REMARK VINA RESULT:      -6.1      2.610      4.961
REMARK  5 active torsions:
REMARK  status: ('A' for Active; 'I' for Inactive)
REMARK    1  A    between atoms: C_6  and  C_7 
REMARK    2  A    between atoms: C_7  and  O_8 
REMARK    3  A    between atoms: O_8  and  C_9 
REMARK    4  A    between atoms: C_24  and  O_25 
REMARK    5  A    between atoms: C_24  and  O_26 
ROOT
ATOM      1  N           0     135.930 133.788 147.985  0.00  0.00    -0.235 N 
ATOM      2  H           0     136.181 134.673 147.676  0.00  0.00     0.174 HD
ATOM      3  H           0     135.994 133.567 148.927  0.00  0.00     0.174 HD
ATOM      4  C           0     135.502 132.898 147.134  0.00  0.00     0.672 C 
ATOM      5  N           0     135.388 133.167 145.783  0.00  0.00    -0.218 N 
ATOM      6  C           0     135.533 132.062 144.840  0.00  0.00     0.151 C 
ATOM      7  C           0     134.645 130.882 145.185  0.00  0.00     0.180 C 
ATOM      8  N           0     133.260 131.179 144.766  0.00  0.00    -0.216 N 
ATOM      9  C           0     132.419 130.700 145.741  0.00  0.00     0.670 C 
ATOM     10  N           0     131.150 130.457 145.561  0.00  0.00    -0.235 N 
ATOM     11  H           0     130.746 130.617 144.694  0.00  0.00     0.174 HD
ATOM     12  H           0     130.613 130.118 146.293  0.00  0.00     0.174 HD
ATOM     13  C           0     134.525 130.609 146.675  0.00  0.00     0.217 C 
ATOM     14  N           0     133.079 130.505 146.929  0.00  0.00    -0.191 N 
ATOM     15  N           0     135.141 131.630 147.523  0.00  0.00    -0.179 N 
ATOM     16  C           0     135.348 131.012 148.841  0.00  0.00     0.106 C 
ATOM     17  C           0     134.169 131.335 149.761  0.00  0.00     0.033 C 
ATOM     18  C           0     135.436 129.489 148.608  0.00  0.00     0.098 C 
ATOM     19  C           0     135.227 129.299 147.080  0.00  0.00     0.210 C 
ATOM     20  H           0     135.215 134.069 145.469  0.00  0.00     0.178 HD
ATOM     21  H           0     132.992 131.631 143.951  0.00  0.00     0.178 HD
ATOM     22  H           0     132.665 130.327 147.787  0.00  0.00     0.180 HD
ENDROOT
BRANCH   6  23
ATOM     23  C           0     136.992 131.598 144.842  0.00  0.00     0.206 C 
BRANCH  23  24
ATOM     24  O           0     137.624 131.983 143.593  0.00  0.00    -0.320 OA
BRANCH  24  25
ATOM     25  C           0     138.430 133.056 143.550  0.00  0.00     0.254 C 
ATOM     26  C           0     137.890 134.386 143.091  0.00  0.00     0.126 C 
ATOM     27  O           0     139.588 132.955 143.880  0.00  0.00    -0.266 OA
ENDBRANCH  24  25
ENDBRANCH  23  24
ENDBRANCH   6  23
BRANCH  19  28
ATOM     28  O           0     134.397 128.165 146.819  0.00  0.00    -0.362 OA
ATOM     29  H           0     134.884 127.596 146.209  0.00  0.00     0.213 HD
ENDBRANCH  19  28
BRANCH  19  30
ATOM     30  O           0     136.484 129.173 146.409  0.00  0.00    -0.362 OA
ATOM     31  H           0     136.555 128.253 146.120  0.00  0.00     0.213 HD
ENDBRANCH  19  30
TORSDOF 5
ENDMDL
MODEL 8
REMARK VINA RESULT:      -6.0      3.678      6.101
REMARK  5 active torsions:
REMARK  status: ('A' for Active; 'I' for Inactive)
REMARK    1  A    between atoms: C_6  and  C_7 
REMARK    2  A    between atoms: C_7  and  O_8 
REMARK    3  A    between atoms: O_8  and  C_9 
REMARK    4  A    between atoms: C_24  and  O_25 
REMARK    5  A    between atoms: C_24  and  O_26 
ROOT
ATOM      1  N           0     134.203 132.099 149.357  0.00  0.00    -0.235 N 
ATOM      2  H           0     133.692 131.785 150.121  0.00  0.00     0.174 HD
ATOM      3  H           0     134.211 133.042 149.135  0.00  0.00     0.174 HD
ATOM      4  C           0     134.881 131.252 148.635  0.00  0.00     0.672 C 
ATOM      5  N           0     134.904 129.898 148.916  0.00  0.00    -0.218 N 
ATOM      6  C           0     135.103 128.963 147.812  0.00  0.00     0.151 C 
ATOM      7  C           0     136.310 129.312 146.964  0.00  0.00     0.180 C 
ATOM      8  N           0     137.537 128.885 147.668  0.00  0.00    -0.216 N 
ATOM      9  C           0     138.486 129.860 147.476  0.00  0.00     0.670 C 
ATOM     10  N           0     139.768 129.676 147.633  0.00  0.00    -0.235 N 
ATOM     11  H           0     140.102 128.807 147.902  0.00  0.00     0.174 HD
ATOM     12  H           0     140.384 130.408 147.480  0.00  0.00     0.174 HD
ATOM     13  C           0     136.511 130.803 146.752  0.00  0.00     0.217 C 
ATOM     14  N           0     137.919 131.052 147.098  0.00  0.00    -0.191 N 
ATOM     15  N           0     135.613 131.647 147.542  0.00  0.00    -0.179 N 
ATOM     16  C           0     135.609 132.970 146.900  0.00  0.00     0.106 C 
ATOM     17  C           0     136.634 133.883 147.575  0.00  0.00     0.033 C 
ATOM     18  C           0     135.991 132.747 145.421  0.00  0.00     0.098 C 
ATOM     19  C           0     136.245 131.220 145.293  0.00  0.00     0.210 C 
ATOM     20  H           0     134.792 129.577 149.825  0.00  0.00     0.178 HD
ATOM     21  H           0     137.652 128.066 148.174  0.00  0.00     0.178 HD
ATOM     22  H           0     138.370 131.910 147.061  0.00  0.00     0.180 HD
ENDROOT
BRANCH   6  23
ATOM     23  C           0     133.856 128.974 146.925  0.00  0.00     0.206 C 
BRANCH  23  24
ATOM     24  O           0     132.677 128.749 147.741  0.00  0.00    -0.320 OA
BRANCH  24  25
ATOM     25  C           0     131.501 129.289 147.387  0.00  0.00     0.254 C 
ATOM     26  C           0     131.322 130.785 147.406  0.00  0.00     0.126 C 
ATOM     27  O           0     130.585 128.575 147.053  0.00  0.00    -0.266 OA
ENDBRANCH  24  25
ENDBRANCH  23  24
ENDBRANCH   6  23
BRANCH  19  28
ATOM     28  O           0     137.382 130.963 144.466  0.00  0.00    -0.362 OA
ATOM     29  H           0     137.943 130.340 144.948  0.00  0.00     0.213 HD
ENDBRANCH  19  28
BRANCH  19  30
ATOM     30  O           0     135.086 130.555 144.783  0.00  0.00    -0.362 OA
ATOM     31  H           0     134.970 130.855 143.871  0.00  0.00     0.213 HD
ENDBRANCH  19  30
TORSDOF 5
ENDMDL
MODEL 9
REMARK VINA RESULT:      -6.0     10.302     12.655
REMARK  5 active torsions:
REMARK  status: ('A' for Active; 'I' for Inactive)
REMARK    1  A    between atoms: C_6  and  C_7 
REMARK    2  A    between atoms: C_7  and  O_8 
REMARK    3  A    between atoms: O_8  and  C_9 
REMARK    4  A    between atoms: C_24  and  O_25 
REMARK    5  A    between atoms: C_24  and  O_26 
ROOT
ATOM      1  N           0     131.351 134.911 136.138  0.00  0.00    -0.235 N 
ATOM      2  H           0     130.552 134.849 136.685  0.00  0.00     0.174 HD
ATOM      3  H           0     131.955 135.661 136.245  0.00  0.00     0.174 HD
ATOM      4  C           0     131.614 133.981 135.263  0.00  0.00     0.672 C 
ATOM      5  N           0     130.786 132.889 135.078  0.00  0.00    -0.218 N 
ATOM      6  C           0     130.745 132.265 133.758  0.00  0.00     0.151 C 
ATOM      7  C           0     132.127 131.933 133.228  0.00  0.00     0.180 C 
ATOM      8  N           0     132.620 130.709 133.894  0.00  0.00    -0.216 N 
ATOM      9  C           0     133.957 130.889 134.155  0.00  0.00     0.670 C 
ATOM     10  N           0     134.794 129.918 134.396  0.00  0.00    -0.235 N 
ATOM     11  H           0     134.482 129.000 134.399  0.00  0.00     0.174 HD
ATOM     12  H           0     135.727 130.115 134.572  0.00  0.00     0.174 HD
ATOM     13  C           0     133.183 132.975 133.552  0.00  0.00     0.217 C 
ATOM     14  N           0     134.304 132.217 134.129  0.00  0.00    -0.191 N 
ATOM     15  N           0     132.730 134.028 134.462  0.00  0.00    -0.179 N 
ATOM     16  C           0     133.663 135.152 134.302  0.00  0.00     0.106 C 
ATOM     17  C           0     134.764 135.074 135.362  0.00  0.00     0.033 C 
ATOM     18  C           0     134.277 135.023 132.891  0.00  0.00     0.098 C 
ATOM     19  C           0     133.652 133.732 132.293  0.00  0.00     0.210 C 
ATOM     20  H           0     130.246 132.545 135.807  0.00  0.00     0.178 HD
ATOM     21  H           0     132.096 129.922 134.108  0.00  0.00     0.178 HD
ATOM     22  H           0     135.145 132.591 134.436  0.00  0.00     0.180 HD
ENDROOT
BRANCH   6  23
ATOM     23  C           0     130.059 133.220 132.780  0.00  0.00     0.206 C 
BRANCH  23  24
ATOM     24  O           0     129.894 132.564 131.496  0.00  0.00    -0.320 OA
BRANCH  24  25
ATOM     25  C           0     128.793 131.837 131.249  0.00  0.00     0.254 C 
ATOM     26  C           0     128.917 130.383 130.875  0.00  0.00     0.126 C 
ATOM     27  O           0     127.701 132.350 131.326  0.00  0.00    -0.266 OA
ENDBRANCH  24  25
ENDBRANCH  23  24
ENDBRANCH   6  23
BRANCH  19  28
ATOM     28  O           0     134.632 132.981 131.573  0.00  0.00    -0.362 OA
ATOM     29  H           0     134.641 132.093 131.956  0.00  0.00     0.213 HD
ENDBRANCH  19  28
BRANCH  19  30
ATOM     30  O           0     132.538 134.050 131.454  0.00  0.00    -0.362 OA
ATOM     31  H           0     131.837 133.420 131.670  0.00  0.00     0.213 HD
ENDBRANCH  19  30
TORSDOF 5
ENDMDL
