# created with PyMOL 2.3.4
@<TRIPOS>MOLECULE
ligand_out_0001
31 33 1                 
SMALL
USER_CHARGES
@<TRIPOS>ATOM
1	   N	134.687	131.932	146.569	N.3	1	UNK0	-0.235	
2	   N	136.206	133.642	146.024	N.3	1	UNK0	-0.218	
3	   N	136.069	135.751	143.776	N.3	1	UNK0	-0.216	
4	   N	134.310	136.860	142.647	N.3	1	UNK0	-0.235	
5	   N	134.363	134.512	142.929	N.3	1	UNK0	-0.191	
6	   N	134.933	132.632	144.347	N.3	1	UNK0	-0.179	
7	   C	135.249	132.704	145.682	C.3	1	UNK0	0.672	
8	   C	137.215	133.999	145.030	C.3	1	UNK0	0.151	
9	   C	136.607	134.377	143.693	C.3	1	UNK0	0.180	
10	   C	134.879	135.774	143.090	C.3	1	UNK0	0.670	
11	   C	135.403	133.538	143.298	C.3	1	UNK0	0.217	
12	   C	134.114	131.608	143.681	C.3	1	UNK0	0.106	
13	   C	132.637	132.006	143.729	C.3	1	UNK0	0.033	
14	   C	134.596	131.538	142.216	C.3	1	UNK0	0.098	
15	   C	135.710	132.615	142.103	C.3	1	UNK0	0.210	
16	   C	138.151	132.806	144.825	C.2	1	UNK0	0.206	
17	   C	138.769	131.227	146.554	C.2	1	UNK0	0.254	
18	   C	140.052	130.496	146.851	C.3	1	UNK0	0.126	
19	   O	138.805	132.483	146.081	O.2	1	UNK0	-0.320	
20	   O	137.706	130.684	146.742	O.co2	1	UNK0	-0.266	
21	   O	135.607	133.322	140.865	O.2	1	UNK0	-0.362	
22	   O	137.003	132.023	142.244	O.2	1	UNK0	-0.362	
23	   H	134.937	132.006	147.504	 H	1	UNK0	0.174	
24	   H	134.017	131.287	146.297	 H	1	UNK0	0.174	
25	   H	134.728	137.721	142.795	 H	1	UNK0	0.174	
26	   H	133.468	136.804	142.168	 H	1	UNK0	0.174	
27	   H	136.206	134.055	146.902	 H	1	UNK0	0.178	
28	   H	136.482	136.501	144.232	 H	1	UNK0	0.178	
29	   H	133.469	134.298	142.621	 H	1	UNK0	0.180	
30	   H	136.498	133.623	140.639	 H	1	UNK0	0.213	
31	   H	137.649	132.700	141.997	 H	1	UNK0	0.213	
@<TRIPOS>BOND
1 1 7 1
2 1 23 1
3 1 24 1
4 2 8 1
5 2 27 1
6 3 10 1
7 3 28 1
8 4 25 1
9 4 26 1
10 5 29 1
11 6 12 1
12 2 7 1
13 6 7 1
14 8 9 1
15 8 16 1
16 3 9 1
17 9 11 1
18 4 10 1
19 5 10 1
20 5 11 1
21 6 11 1
22 11 15 1
23 12 13 1
24 12 14 1
25 14 15 1
26 15 21 2
27 15 22 2
28 16 19 2
29 17 18 1
30 17 20 2
31 17 19 2
32 21 30 1
33 22 31 1
@<TRIPOS>SUBSTRUCTURE
1	UNK0	1	GROUP	1 ****	UNK
