MODEL 1
REMARK VINA RESULT:      -7.8      0.000      0.000
REMARK  6 active torsions:
REMARK  status: ('A' for Active; 'I' for Inactive)
REMARK    1  A    between atoms: C_6  and  C_7 
REMARK    2  A    between atoms: C_7  and  O_8 
REMARK    3  A    between atoms: O_8  and  C_9 
REMARK       I    between atoms: C_9  and  N_10 
REMARK    4  A    between atoms: N_10  and  C_11 
REMARK    5  A    between atoms: C_29  and  O_30 
REMARK    6  A    between atoms: C_29  and  O_31 
ROOT
ATOM      1  N           0     132.394 137.931 132.009  0.00  0.00    -0.235 N 
ATOM      2  H           0     131.702 138.563 131.758  0.00  0.00     0.174 HD
ATOM      3  H           0     133.293 138.031 131.660  0.00  0.00     0.174 HD
ATOM      4  C           0     132.115 136.950 132.822  0.00  0.00     0.672 C 
ATOM      5  N           0     130.850 136.768 133.350  0.00  0.00    -0.218 N 
ATOM      6  C           0     130.434 135.414 133.702  0.00  0.00     0.151 C 
ATOM      7  C           0     131.446 134.700 134.577  0.00  0.00     0.180 C 
ATOM      8  N           0     131.332 135.207 135.962  0.00  0.00    -0.216 N 
ATOM      9  C           0     132.604 135.315 136.469  0.00  0.00     0.670 C 
ATOM     10  N           0     132.883 135.376 137.742  0.00  0.00    -0.235 N 
ATOM     11  H           0     132.167 135.346 138.396  0.00  0.00     0.174 HD
ATOM     12  H           0     133.804 135.452 138.033  0.00  0.00     0.174 HD
ATOM     13  C           0     132.895 134.976 134.206  0.00  0.00     0.217 C 
ATOM     14  N           0     133.546 135.351 135.471  0.00  0.00    -0.191 N 
ATOM     15  N           0     133.056 136.029 133.202  0.00  0.00    -0.183 N 
ATOM     16  C           0     134.413 135.842 132.657  0.00  0.00     0.150 C 
ATOM     17  C           0     134.589 134.308 132.580  0.00  0.00     0.093 C 
ATOM     18  C           0     133.582 133.736 133.610  0.00  0.00     0.209 C 
ATOM     19  H           0     130.254 137.522 133.486  0.00  0.00     0.178 HD
ATOM     20  H           0     130.509 135.422 136.428  0.00  0.00     0.178 HD
ATOM     21  H           0     134.482 135.581 135.582  0.00  0.00     0.180 HD
ENDROOT
BRANCH   6  22
ATOM     22  C           0     130.242 134.608 132.415  0.00  0.00     0.208 C 
BRANCH  22  23
ATOM     23  O           0     128.974 133.903 132.471  0.00  0.00    -0.302 OA
BRANCH  23  24
ATOM     24  C           0     128.881 132.647 131.994  0.00  0.00     0.360 C 
ATOM     25  N           0     129.800 131.724 132.341  0.00  0.00    -0.332 N 
ATOM     26  H           0     130.528 131.964 132.935  0.00  0.00     0.165 HD
ATOM     27  O           0     127.970 132.346 131.249  0.00  0.00    -0.239 OA
BRANCH  25  28
ATOM     28  C           0     129.699 130.358 131.821  0.00  0.00     0.086 C 
ATOM     29  C           0     129.124 129.442 132.904  0.00  0.00     0.025 C 
ATOM     30  C           0     129.018 128.015 132.361  0.00  0.00     0.002 C 
ATOM     31  C           0     130.409 127.518 131.958  0.00  0.00     0.000 C 
ATOM     32  C           0     130.983 128.435 130.875  0.00  0.00     0.002 C 
ATOM     33  C           0     131.088 129.862 131.418  0.00  0.00     0.025 C 
ENDBRANCH  25  28
ENDBRANCH  23  24
ENDBRANCH  22  23
ENDBRANCH   6  22
BRANCH  18  34
ATOM     34  O           0     134.271 133.005 134.628  0.00  0.00    -0.362 OA
ATOM     35  H           0     135.041 132.599 134.208  0.00  0.00     0.213 HD
ENDBRANCH  18  34
BRANCH  18  36
ATOM     36  O           0     132.622 132.901 132.959  0.00  0.00    -0.362 OA
ATOM     37  H           0     131.858 132.841 133.549  0.00  0.00     0.213 HD
ENDBRANCH  18  36
TORSDOF 6
ENDMDL
MODEL 2
REMARK VINA RESULT:      -7.5      1.758      2.105
REMARK  6 active torsions:
REMARK  status: ('A' for Active; 'I' for Inactive)
REMARK    1  A    between atoms: C_6  and  C_7 
REMARK    2  A    between atoms: C_7  and  O_8 
REMARK    3  A    between atoms: O_8  and  C_9 
REMARK       I    between atoms: C_9  and  N_10 
REMARK    4  A    between atoms: N_10  and  C_11 
REMARK    5  A    between atoms: C_29  and  O_30 
REMARK    6  A    between atoms: C_29  and  O_31 
ROOT
ATOM      1  N           0     131.214 136.896 132.219  0.00  0.00    -0.235 N 
ATOM      2  H           0     130.322 137.198 131.989  0.00  0.00     0.174 HD
ATOM      3  H           0     131.986 137.283 131.778  0.00  0.00     0.174 HD
ATOM      4  C           0     131.376 135.973 133.125  0.00  0.00     0.672 C 
ATOM      5  N           0     130.307 135.394 133.786  0.00  0.00    -0.218 N 
ATOM      6  C           0     130.454 134.026 134.275  0.00  0.00     0.151 C 
ATOM      7  C           0     131.711 133.832 135.099  0.00  0.00     0.180 C 
ATOM      8  N           0     131.502 134.404 136.447  0.00  0.00    -0.216 N 
ATOM      9  C           0     132.668 135.025 136.820  0.00  0.00     0.670 C 
ATOM     10  N           0     132.982 135.319 138.051  0.00  0.00    -0.235 N 
ATOM     11  H           0     132.372 135.096 138.772  0.00  0.00     0.174 HD
ATOM     12  H           0     133.823 135.759 138.246  0.00  0.00     0.174 HD
ATOM     13  C           0     132.924 134.581 134.570  0.00  0.00     0.217 C 
ATOM     14  N           0     133.464 135.301 135.736  0.00  0.00    -0.191 N 
ATOM     15  N           0     132.616 135.508 133.480  0.00  0.00    -0.183 N 
ATOM     16  C           0     133.907 135.779 132.822  0.00  0.00     0.150 C 
ATOM     17  C           0     134.641 134.418 132.843  0.00  0.00     0.093 C 
ATOM     18  C           0     133.989 133.627 134.005  0.00  0.00     0.209 C 
ATOM     19  H           0     129.482 135.884 133.922  0.00  0.00     0.178 HD
ATOM     20  H           0     130.689 134.348 136.973  0.00  0.00     0.178 HD
ATOM     21  H           0     134.250 135.870 135.738  0.00  0.00     0.180 HD
ENDROOT
BRANCH   6  22
ATOM     22  C           0     130.499 133.076 133.077  0.00  0.00     0.208 C 
BRANCH  22  23
ATOM     23  O           0     130.406 131.704 133.544  0.00  0.00    -0.302 OA
BRANCH  23  24
ATOM     24  C           0     130.971 130.711 132.832  0.00  0.00     0.360 C 
ATOM     25  N           0     131.215 129.519 133.413  0.00  0.00    -0.332 N 
ATOM     26  H           0     130.983 129.377 134.343  0.00  0.00     0.165 HD
ATOM     27  O           0     131.263 130.889 131.666  0.00  0.00    -0.239 OA
BRANCH  25  28
ATOM     28  C           0     131.831 128.439 132.638  0.00  0.00     0.086 C 
ATOM     29  C           0     131.301 127.091 133.134  0.00  0.00     0.025 C 
ATOM     30  C           0     131.944 125.962 132.324  0.00  0.00     0.002 C 
ATOM     31  C           0     133.463 126.010 132.501  0.00  0.00     0.000 C 
ATOM     32  C           0     133.992 127.358 132.005  0.00  0.00     0.002 C 
ATOM     33  C           0     133.349 128.486 132.814  0.00  0.00     0.025 C 
ENDBRANCH  25  28
ENDBRANCH  23  24
ENDBRANCH  22  23
ENDBRANCH   6  22
BRANCH  18  34
ATOM     34  O           0     134.963 133.313 135.003  0.00  0.00    -0.362 OA
ATOM     35  H           0     135.490 132.579 134.658  0.00  0.00     0.213 HD
ENDBRANCH  18  34
BRANCH  18  36
ATOM     36  O           0     133.376 132.434 133.514  0.00  0.00    -0.362 OA
ATOM     37  H           0     133.048 132.633 132.626  0.00  0.00     0.213 HD
ENDBRANCH  18  36
TORSDOF 6
ENDMDL
MODEL 3
REMARK VINA RESULT:      -7.5     11.092     14.587
REMARK  6 active torsions:
REMARK  status: ('A' for Active; 'I' for Inactive)
REMARK    1  A    between atoms: C_6  and  C_7 
REMARK    2  A    between atoms: C_7  and  O_8 
REMARK    3  A    between atoms: O_8  and  C_9 
REMARK       I    between atoms: C_9  and  N_10 
REMARK    4  A    between atoms: N_10  and  C_11 
REMARK    5  A    between atoms: C_29  and  O_30 
REMARK    6  A    between atoms: C_29  and  O_31 
ROOT
ATOM      1  N           0     134.752 132.004 146.681  0.00  0.00    -0.235 N 
ATOM      2  H           0     134.938 132.141 147.624  0.00  0.00     0.174 HD
ATOM      3  H           0     134.154 131.293 146.403  0.00  0.00     0.174 HD
ATOM      4  C           0     135.301 132.781 145.790  0.00  0.00     0.672 C 
ATOM      5  N           0     136.156 133.812 146.137  0.00  0.00    -0.218 N 
ATOM      6  C           0     137.182 134.213 145.178  0.00  0.00     0.151 C 
ATOM      7  C           0     136.618 134.479 143.796  0.00  0.00     0.180 C 
ATOM      8  N           0     135.947 135.797 143.790  0.00  0.00    -0.216 N 
ATOM      9  C           0     134.805 135.678 143.037  0.00  0.00     0.670 C 
ATOM     10  N           0     134.164 136.686 142.514  0.00  0.00    -0.235 N 
ATOM     11  H           0     134.489 137.589 142.649  0.00  0.00     0.174 HD
ATOM     12  H           0     133.361 136.531 141.992  0.00  0.00     0.174 HD
ATOM     13  C           0     135.524 133.511 143.373  0.00  0.00     0.217 C 
ATOM     14  N           0     134.422 134.367 142.902  0.00  0.00    -0.191 N 
ATOM     15  N           0     135.074 132.623 144.447  0.00  0.00    -0.183 N 
ATOM     16  C           0     134.387 131.510 143.769  0.00  0.00     0.150 C 
ATOM     17  C           0     135.233 131.250 142.501  0.00  0.00     0.093 C 
ATOM     18  C           0     135.984 132.580 142.240  0.00  0.00     0.209 C 
ATOM     19  H           0     136.076 134.257 146.994  0.00  0.00     0.178 HD
ATOM     20  H           0     136.258 136.600 144.236  0.00  0.00     0.178 HD
ATOM     21  H           0     133.572 134.057 142.553  0.00  0.00     0.180 HD
ENDROOT
BRANCH   6  22
ATOM     22  C           0     138.226 133.099 145.077  0.00  0.00     0.208 C 
BRANCH  22  23
ATOM     23  O           0     138.789 132.843 146.391  0.00  0.00    -0.302 OA
BRANCH  23  24
ATOM     24  C           0     138.743 131.604 146.912  0.00  0.00     0.360 C 
ATOM     25  N           0     139.876 131.009 147.338  0.00  0.00    -0.332 N 
ATOM     26  H           0     140.724 131.475 147.269  0.00  0.00     0.165 HD
ATOM     27  O           0     137.682 131.019 146.999  0.00  0.00    -0.239 OA
BRANCH  25  28
ATOM     28  C           0     139.827 129.659 147.905  0.00  0.00     0.086 C 
ATOM     29  C           0     139.661 129.750 149.424  0.00  0.00     0.025 C 
ATOM     30  C           0     139.609 128.340 150.016  0.00  0.00     0.002 C 
ATOM     31  C           0     140.908 127.601 149.689  0.00  0.00     0.000 C 
ATOM     32  C           0     141.074 127.511 148.170  0.00  0.00     0.002 C 
ATOM     33  C           0     141.125 128.920 147.577  0.00  0.00     0.025 C 
ENDBRANCH  25  28
ENDBRANCH  23  24
ENDBRANCH  22  23
ENDBRANCH   6  22
BRANCH  18  34
ATOM     34  O           0     135.619 133.118 140.967  0.00  0.00    -0.362 OA
ATOM     35  H           0     136.244 132.759 140.322  0.00  0.00     0.213 HD
ENDBRANCH  18  34
BRANCH  18  36
ATOM     36  O           0     137.397 132.377 142.308  0.00  0.00    -0.362 OA
ATOM     37  H           0     137.715 132.312 141.397  0.00  0.00     0.213 HD
ENDBRANCH  18  36
TORSDOF 6
ENDMDL
MODEL 4
REMARK VINA RESULT:      -7.4      2.483      3.483
REMARK  6 active torsions:
REMARK  status: ('A' for Active; 'I' for Inactive)
REMARK    1  A    between atoms: C_6  and  C_7 
REMARK    2  A    between atoms: C_7  and  O_8 
REMARK    3  A    between atoms: O_8  and  C_9 
REMARK       I    between atoms: C_9  and  N_10 
REMARK    4  A    between atoms: N_10  and  C_11 
REMARK    5  A    between atoms: C_29  and  O_30 
REMARK    6  A    between atoms: C_29  and  O_31 
ROOT
ATOM      1  N           0     134.230 133.484 132.067  0.00  0.00    -0.235 N 
ATOM      2  H           0     134.201 132.864 131.321  0.00  0.00     0.174 HD
ATOM      3  H           0     135.081 133.821 132.385  0.00  0.00     0.174 HD
ATOM      4  C           0     133.122 133.868 132.637  0.00  0.00     0.672 C 
ATOM      5  N           0     131.882 133.420 132.217  0.00  0.00    -0.218 N 
ATOM      6  C           0     130.802 133.352 133.195  0.00  0.00     0.151 C 
ATOM      7  C           0     130.627 134.648 133.964  0.00  0.00     0.180 C 
ATOM      8  N           0     129.930 135.631 133.106  0.00  0.00    -0.216 N 
ATOM      9  C           0     130.510 136.856 133.324  0.00  0.00     0.670 C 
ATOM     10  N           0     129.947 137.996 133.034  0.00  0.00    -0.235 N 
ATOM     11  H           0     129.063 138.012 132.638  0.00  0.00     0.174 HD
ATOM     12  H           0     130.414 138.827 133.214  0.00  0.00     0.174 HD
ATOM     13  C           0     131.933 135.339 134.324  0.00  0.00     0.217 C 
ATOM     14  N           0     131.758 136.733 133.885  0.00  0.00    -0.191 N 
ATOM     15  N           0     133.111 134.737 133.697  0.00  0.00    -0.183 N 
ATOM     16  C           0     134.260 135.219 134.485  0.00  0.00     0.150 C 
ATOM     17  C           0     133.752 135.215 135.946  0.00  0.00     0.093 C 
ATOM     18  C           0     132.209 135.297 135.836  0.00  0.00     0.209 C 
ATOM     19  H           0     131.735 133.159 131.294  0.00  0.00     0.178 HD
ATOM     20  H           0     129.196 135.444 132.501  0.00  0.00     0.178 HD
ATOM     21  H           0     132.411 137.445 133.979  0.00  0.00     0.180 HD
ENDROOT
BRANCH   6  22
ATOM     22  C           0     131.105 132.229 134.189  0.00  0.00     0.208 C 
BRANCH  22  23
ATOM     23  O           0     130.264 131.083 133.895  0.00  0.00    -0.302 OA
BRANCH  23  24
ATOM     24  C           0     130.733 130.083 133.125  0.00  0.00     0.360 C 
ATOM     25  N           0     131.768 129.332 133.552  0.00  0.00    -0.332 N 
ATOM     26  H           0     132.174 129.511 134.414  0.00  0.00     0.165 HD
ATOM     27  O           0     130.225 129.859 132.044  0.00  0.00    -0.239 OA
BRANCH  25  28
ATOM     28  C           0     132.280 128.245 132.713  0.00  0.00     0.086 C 
ATOM     29  C           0     131.724 126.910 133.215  0.00  0.00     0.025 C 
ATOM     30  C           0     132.258 125.775 132.338  0.00  0.00     0.002 C 
ATOM     31  C           0     133.786 125.751 132.410  0.00  0.00     0.000 C 
ATOM     32  C           0     134.341 127.086 131.909  0.00  0.00     0.002 C 
ATOM     33  C           0     133.807 128.221 132.784  0.00  0.00     0.025 C 
ENDBRANCH  25  28
ENDBRANCH  23  24
ENDBRANCH  22  23
ENDBRANCH   6  22
BRANCH  18  34
ATOM     34  O           0     131.726 136.485 136.468  0.00  0.00    -0.362 OA
ATOM     35  H           0     131.364 137.047 135.769  0.00  0.00     0.213 HD
ENDBRANCH  18  34
BRANCH  18  36
ATOM     36  O           0     131.605 134.141 136.419  0.00  0.00    -0.362 OA
ATOM     37  H           0     132.246 133.420 136.340  0.00  0.00     0.213 HD
ENDBRANCH  18  36
TORSDOF 6
ENDMDL
MODEL 5
REMARK VINA RESULT:      -7.4      4.036      7.598
REMARK  6 active torsions:
REMARK  status: ('A' for Active; 'I' for Inactive)
REMARK    1  A    between atoms: C_6  and  C_7 
REMARK    2  A    between atoms: C_7  and  O_8 
REMARK    3  A    between atoms: O_8  and  C_9 
REMARK       I    between atoms: C_9  and  N_10 
REMARK    4  A    between atoms: N_10  and  C_11 
REMARK    5  A    between atoms: C_29  and  O_30 
REMARK    6  A    between atoms: C_29  and  O_31 
ROOT
ATOM      1  N           0     131.267 132.071 135.186  0.00  0.00    -0.235 N 
ATOM      2  H           0     130.606 131.748 135.818  0.00  0.00     0.174 HD
ATOM      3  H           0     131.674 131.458 134.555  0.00  0.00     0.174 HD
ATOM      4  C           0     131.604 133.330 135.181  0.00  0.00     0.672 C 
ATOM      5  N           0     131.048 134.245 136.058  0.00  0.00    -0.218 N 
ATOM      6  C           0     131.843 135.407 136.443  0.00  0.00     0.151 C 
ATOM      7  C           0     132.413 136.147 135.248  0.00  0.00     0.180 C 
ATOM      8  N           0     131.345 136.954 134.622  0.00  0.00    -0.216 N 
ATOM      9  C           0     131.504 136.869 133.260  0.00  0.00     0.670 C 
ATOM     10  N           0     130.994 137.713 132.408  0.00  0.00    -0.235 N 
ATOM     11  H           0     130.463 138.460 132.725  0.00  0.00     0.174 HD
ATOM     12  H           0     131.145 137.594 131.457  0.00  0.00     0.174 HD
ATOM     13  C           0     132.892 135.240 134.125  0.00  0.00     0.217 C 
ATOM     14  N           0     132.267 135.783 132.907  0.00  0.00    -0.191 N 
ATOM     15  N           0     132.537 133.832 134.312  0.00  0.00    -0.183 N 
ATOM     16  C           0     133.435 133.082 133.415  0.00  0.00     0.150 C 
ATOM     17  C           0     134.786 133.829 133.512  0.00  0.00     0.093 C 
ATOM     18  C           0     134.422 135.260 133.981  0.00  0.00     0.209 C 
ATOM     19  H           0     130.152 134.118 136.407  0.00  0.00     0.178 HD
ATOM     20  H           0     130.656 137.455 135.087  0.00  0.00     0.178 HD
ATOM     21  H           0     132.378 135.435 132.009  0.00  0.00     0.180 HD
ENDROOT
BRANCH   6  22
ATOM     22  C           0     132.999 134.942 137.331  0.00  0.00     0.208 C 
BRANCH  22  23
ATOM     23  O           0     132.813 135.455 138.676  0.00  0.00    -0.302 OA
BRANCH  23  24
ATOM     24  C           0     132.976 134.640 139.735  0.00  0.00     0.360 C 
ATOM     25  N           0     133.992 134.850 140.597  0.00  0.00    -0.332 N 
ATOM     26  H           0     134.604 135.588 140.453  0.00  0.00     0.165 HD
ATOM     27  O           0     132.209 133.715 139.914  0.00  0.00    -0.239 OA
BRANCH  25  28
ATOM     28  C           0     134.170 133.963 141.749  0.00  0.00     0.086 C 
ATOM     29  C           0     134.643 134.780 142.953  0.00  0.00     0.025 C 
ATOM     30  C           0     134.828 133.854 144.157  0.00  0.00     0.002 C 
ATOM     31  C           0     135.873 132.787 143.823  0.00  0.00     0.000 C 
ATOM     32  C           0     135.400 131.970 142.618  0.00  0.00     0.002 C 
ATOM     33  C           0     135.213 132.896 141.415  0.00  0.00     0.025 C 
ENDBRANCH  25  28
ENDBRANCH  23  24
ENDBRANCH  22  23
ENDBRANCH   6  22
BRANCH  18  34
ATOM     34  O           0     134.823 136.222 133.003  0.00  0.00    -0.362 OA
ATOM     35  H           0     135.681 136.567 133.286  0.00  0.00     0.213 HD
ENDBRANCH  18  34
BRANCH  18  36
ATOM     36  O           0     135.035 135.543 135.241  0.00  0.00    -0.362 OA
ATOM     37  H           0     135.482 136.396 135.148  0.00  0.00     0.213 HD
ENDBRANCH  18  36
TORSDOF 6
ENDMDL
MODEL 6
REMARK VINA RESULT:      -7.4     11.254     14.909
REMARK  6 active torsions:
REMARK  status: ('A' for Active; 'I' for Inactive)
REMARK    1  A    between atoms: C_6  and  C_7 
REMARK    2  A    between atoms: C_7  and  O_8 
REMARK    3  A    between atoms: O_8  and  C_9 
REMARK       I    between atoms: C_9  and  N_10 
REMARK    4  A    between atoms: N_10  and  C_11 
REMARK    5  A    between atoms: C_29  and  O_30 
REMARK    6  A    between atoms: C_29  and  O_31 
ROOT
ATOM      1  N           0     140.180 129.536 148.614  0.00  0.00    -0.235 N 
ATOM      2  H           0     141.129 129.735 148.661  0.00  0.00     0.174 HD
ATOM      3  H           0     139.854 128.661 148.875  0.00  0.00     0.174 HD
ATOM      4  C           0     139.343 130.449 148.207  0.00  0.00     0.672 C 
ATOM      5  N           0     139.758 131.714 147.829  0.00  0.00    -0.218 N 
ATOM      6  C           0     138.961 132.438 146.843  0.00  0.00     0.151 C 
ATOM      7  C           0     137.488 132.484 147.202  0.00  0.00     0.180 C 
ATOM      8  N           0     137.279 133.490 148.265  0.00  0.00    -0.216 N 
ATOM      9  C           0     136.353 132.980 149.142  0.00  0.00     0.670 C 
ATOM     10  N           0     135.662 133.701 149.979  0.00  0.00    -0.235 N 
ATOM     11  H           0     135.787 134.663 150.009  0.00  0.00     0.174 HD
ATOM     12  H           0     135.023 133.276 150.573  0.00  0.00     0.174 HD
ATOM     13  C           0     136.954 131.196 147.808  0.00  0.00     0.217 C 
ATOM     14  N           0     136.246 131.616 149.028  0.00  0.00    -0.191 N 
ATOM     15  N           0     137.995 130.214 148.118  0.00  0.00    -0.183 N 
ATOM     16  C           0     137.289 128.928 148.254  0.00  0.00     0.150 C 
ATOM     17  C           0     136.203 128.968 147.153  0.00  0.00     0.093 C 
ATOM     18  C           0     135.982 130.473 146.861  0.00  0.00     0.209 C 
ATOM     19  H           0     140.556 132.109 148.211  0.00  0.00     0.178 HD
ATOM     20  H           0     137.715 134.354 148.331  0.00  0.00     0.178 HD
ATOM     21  H           0     135.780 131.030 149.645  0.00  0.00     0.180 HD
ENDROOT
BRANCH   6  22
ATOM     22  C           0     139.115 131.752 145.484  0.00  0.00     0.208 C 
BRANCH  22  23
ATOM     23  O           0     139.534 132.727 144.494  0.00  0.00    -0.302 OA
BRANCH  23  24
ATOM     24  C           0     138.616 133.356 143.738  0.00  0.00     0.360 C 
ATOM     25  N           0     137.355 132.883 143.676  0.00  0.00    -0.332 N 
ATOM     26  H           0     137.110 132.090 144.177  0.00  0.00     0.165 HD
ATOM     27  O           0     138.923 134.349 143.109  0.00  0.00    -0.239 OA
BRANCH  25  28
ATOM     28  C           0     136.355 133.566 142.851  0.00  0.00     0.086 C 
ATOM     29  C           0     135.455 134.421 143.746  0.00  0.00     0.025 C 
ATOM     30  C           0     134.411 135.136 142.885  0.00  0.00     0.002 C 
ATOM     31  C           0     133.561 134.098 142.149  0.00  0.00     0.000 C 
ATOM     32  C           0     134.461 133.243 141.255  0.00  0.00     0.002 C 
ATOM     33  C           0     135.506 132.530 142.115  0.00  0.00     0.025 C 
ENDBRANCH  25  28
ENDBRANCH  23  24
ENDBRANCH  22  23
ENDBRANCH   6  22
BRANCH  18  34
ATOM     34  O           0     134.632 130.844 147.148  0.00  0.00    -0.362 OA
ATOM     35  H           0     134.663 131.462 147.891  0.00  0.00     0.213 HD
ENDBRANCH  18  34
BRANCH  18  36
ATOM     36  O           0     136.302 130.770 145.500  0.00  0.00    -0.362 OA
ATOM     37  H           0     137.156 130.354 145.317  0.00  0.00     0.213 HD
ENDBRANCH  18  36
TORSDOF 6
ENDMDL
MODEL 7
REMARK VINA RESULT:      -7.3     11.998     15.514
REMARK  6 active torsions:
REMARK  status: ('A' for Active; 'I' for Inactive)
REMARK    1  A    between atoms: C_6  and  C_7 
REMARK    2  A    between atoms: C_7  and  O_8 
REMARK    3  A    between atoms: O_8  and  C_9 
REMARK       I    between atoms: C_9  and  N_10 
REMARK    4  A    between atoms: N_10  and  C_11 
REMARK    5  A    between atoms: C_29  and  O_30 
REMARK    6  A    between atoms: C_29  and  O_31 
ROOT
ATOM      1  N           0     135.164 130.728 146.115  0.00  0.00    -0.235 N 
ATOM      2  H           0     135.054 130.718 145.151  0.00  0.00     0.174 HD
ATOM      3  H           0     134.392 130.845 146.690  0.00  0.00     0.174 HD
ATOM      4  C           0     136.349 130.576 146.637  0.00  0.00     0.672 C 
ATOM      5  N           0     137.480 130.400 145.859  0.00  0.00    -0.218 N 
ATOM      6  C           0     138.763 130.850 146.390  0.00  0.00     0.151 C 
ATOM      7  C           0     139.034 130.326 147.787  0.00  0.00     0.180 C 
ATOM      8  N           0     139.447 128.909 147.702  0.00  0.00    -0.216 N 
ATOM      9  C           0     138.861 128.242 148.749  0.00  0.00     0.670 C 
ATOM     10  N           0     139.269 127.090 149.206  0.00  0.00    -0.235 N 
ATOM     11  H           0     140.033 126.652 148.800  0.00  0.00     0.174 HD
ATOM     12  H           0     138.808 126.673 149.950  0.00  0.00     0.174 HD
ATOM     13  C           0     137.810 130.295 148.689  0.00  0.00     0.217 C 
ATOM     14  N           0     137.791 128.937 149.256  0.00  0.00    -0.191 N 
ATOM     15  N           0     136.556 130.588 147.992  0.00  0.00    -0.183 N 
ATOM     16  C           0     135.598 130.953 149.051  0.00  0.00     0.150 C 
ATOM     17  C           0     136.435 131.773 150.060  0.00  0.00     0.093 C 
ATOM     18  C           0     137.901 131.333 149.819  0.00  0.00     0.209 C 
ATOM     19  H           0     137.422 129.986 144.984  0.00  0.00     0.178 HD
ATOM     20  H           0     140.029 128.521 147.029  0.00  0.00     0.178 HD
ATOM     21  H           0     137.136 128.592 149.884  0.00  0.00     0.180 HD
ENDROOT
BRANCH   6  22
ATOM     22  C           0     138.771 132.380 146.429  0.00  0.00     0.208 C 
BRANCH  22  23
ATOM     23  O           0     139.288 132.893 145.174  0.00  0.00    -0.302 OA
BRANCH  23  24
ATOM     24  C           0     138.446 133.158 144.157  0.00  0.00     0.360 C 
ATOM     25  N           0     137.172 133.516 144.413  0.00  0.00    -0.332 N 
ATOM     26  H           0     136.862 133.585 145.329  0.00  0.00     0.165 HD
ATOM     27  O           0     138.834 133.071 143.009  0.00  0.00    -0.239 OA
BRANCH  25  28
ATOM     28  C           0     136.255 133.803 143.306  0.00  0.00     0.086 C 
ATOM     29  C           0     135.248 134.870 143.742  0.00  0.00     0.025 C 
ATOM     30  C           0     134.291 135.170 142.586  0.00  0.00     0.002 C 
ATOM     31  C           0     133.545 133.891 142.198  0.00  0.00     0.000 C 
ATOM     32  C           0     134.552 132.825 141.763  0.00  0.00     0.002 C 
ATOM     33  C           0     135.510 132.526 142.918  0.00  0.00     0.025 C 
ENDBRANCH  25  28
ENDBRANCH  23  24
ENDBRANCH  22  23
ENDBRANCH   6  22
BRANCH  18  34
ATOM     34  O           0     138.445 130.743 151.002  0.00  0.00    -0.362 OA
ATOM     35  H           0     137.855 130.018 151.250  0.00  0.00     0.213 HD
ENDBRANCH  18  34
BRANCH  18  36
ATOM     36  O           0     138.695 132.447 149.407  0.00  0.00    -0.362 OA
ATOM     37  H           0     138.175 133.243 149.586  0.00  0.00     0.213 HD
ENDBRANCH  18  36
TORSDOF 6
ENDMDL
MODEL 8
REMARK VINA RESULT:      -7.1      7.129     10.500
REMARK  6 active torsions:
REMARK  status: ('A' for Active; 'I' for Inactive)
REMARK    1  A    between atoms: C_6  and  C_7 
REMARK    2  A    between atoms: C_7  and  O_8 
REMARK    3  A    between atoms: O_8  and  C_9 
REMARK       I    between atoms: C_9  and  N_10 
REMARK    4  A    between atoms: N_10  and  C_11 
REMARK    5  A    between atoms: C_29  and  O_30 
REMARK    6  A    between atoms: C_29  and  O_31 
ROOT
ATOM      1  N           0     133.971 130.866 142.610  0.00  0.00    -0.235 N 
ATOM      2  H           0     133.585 130.667 141.742  0.00  0.00     0.174 HD
ATOM      3  H           0     133.783 130.292 143.368  0.00  0.00     0.174 HD
ATOM      4  C           0     134.749 131.903 142.754  0.00  0.00     0.672 C 
ATOM      5  N           0     135.052 132.749 141.701  0.00  0.00    -0.218 N 
ATOM      6  C           0     135.362 134.143 142.001  0.00  0.00     0.151 C 
ATOM      7  C           0     136.421 134.289 143.076  0.00  0.00     0.180 C 
ATOM      8  N           0     137.749 134.011 142.490  0.00  0.00    -0.216 N 
ATOM      9  C           0     138.470 133.296 143.415  0.00  0.00     0.670 C 
ATOM     10  N           0     139.769 133.186 143.408  0.00  0.00    -0.235 N 
ATOM     11  H           0     140.288 133.626 142.717  0.00  0.00     0.174 HD
ATOM     12  H           0     140.216 132.665 144.092  0.00  0.00     0.174 HD
ATOM     13  C           0     136.302 133.279 144.208  0.00  0.00     0.217 C 
ATOM     14  N           0     137.652 132.709 144.350  0.00  0.00    -0.191 N 
ATOM     15  N           0     135.314 132.229 143.959  0.00  0.00    -0.183 N 
ATOM     16  C           0     135.022 131.649 145.283  0.00  0.00     0.150 C 
ATOM     17  C           0     135.020 132.862 146.242  0.00  0.00     0.093 C 
ATOM     18  C           0     135.872 133.941 145.527  0.00  0.00     0.209 C 
ATOM     19  H           0     135.060 132.423 140.788  0.00  0.00     0.178 HD
ATOM     20  H           0     138.057 134.284 141.612  0.00  0.00     0.178 HD
ATOM     21  H           0     137.920 132.037 144.996  0.00  0.00     0.180 HD
ENDROOT
BRANCH   6  22
ATOM     22  C           0     134.084 134.842 142.472  0.00  0.00     0.208 C 
BRANCH  22  23
ATOM     23  O           0     133.545 135.645 141.389  0.00  0.00    -0.302 OA
BRANCH  23  24
ATOM     24  C           0     133.360 135.098 140.173  0.00  0.00     0.360 C 
ATOM     25  N           0     133.888 135.687 139.081  0.00  0.00    -0.332 N 
ATOM     26  H           0     134.401 136.505 139.172  0.00  0.00     0.165 HD
ATOM     27  O           0     132.716 134.074 140.059  0.00  0.00    -0.239 OA
BRANCH  25  28
ATOM     28  C           0     133.685 135.093 137.757  0.00  0.00     0.086 C 
ATOM     29  C           0     134.885 135.416 136.865  0.00  0.00     0.025 C 
ATOM     30  C           0     134.674 134.794 135.482  0.00  0.00     0.002 C 
ATOM     31  C           0     133.401 135.368 134.855  0.00  0.00     0.000 C 
ATOM     32  C           0     132.202 135.044 135.748  0.00  0.00     0.002 C 
ATOM     33  C           0     132.414 135.665 137.131  0.00  0.00     0.025 C 
ENDBRANCH  25  28
ENDBRANCH  23  24
ENDBRANCH  22  23
ENDBRANCH   6  22
BRANCH  18  34
ATOM     34  O           0     137.014 134.278 146.317  0.00  0.00    -0.362 OA
ATOM     35  H           0     136.778 135.063 146.830  0.00  0.00     0.213 HD
ENDBRANCH  18  34
BRANCH  18  36
ATOM     36  O           0     135.085 135.105 145.265  0.00  0.00    -0.362 OA
ATOM     37  H           0     135.028 135.597 146.096  0.00  0.00     0.213 HD
ENDBRANCH  18  36
TORSDOF 6
ENDMDL
MODEL 9
REMARK VINA RESULT:      -6.9      2.455      4.300
REMARK  6 active torsions:
REMARK  status: ('A' for Active; 'I' for Inactive)
REMARK    1  A    between atoms: C_6  and  C_7 
REMARK    2  A    between atoms: C_7  and  O_8 
REMARK    3  A    between atoms: O_8  and  C_9 
REMARK       I    between atoms: C_9  and  N_10 
REMARK    4  A    between atoms: N_10  and  C_11 
REMARK    5  A    between atoms: C_29  and  O_30 
REMARK    6  A    between atoms: C_29  and  O_31 
ROOT
ATOM      1  N           0     130.109 130.993 133.908  0.00  0.00    -0.235 N 
ATOM      2  H           0     130.421 130.134 134.233  0.00  0.00     0.174 HD
ATOM      3  H           0     129.207 131.084 133.564  0.00  0.00     0.174 HD
ATOM      4  C           0     130.902 132.028 133.940  0.00  0.00     0.672 C 
ATOM      5  N           0     132.195 131.951 134.425  0.00  0.00    -0.218 N 
ATOM      6  C           0     133.191 132.876 133.893  0.00  0.00     0.151 C 
ATOM      7  C           0     132.729 134.320 133.934  0.00  0.00     0.180 C 
ATOM      8  N           0     132.845 134.827 135.318  0.00  0.00    -0.216 N 
ATOM      9  C           0     131.748 135.614 135.565  0.00  0.00     0.670 C 
ATOM     10  N           0     131.681 136.502 136.518  0.00  0.00    -0.235 N 
ATOM     11  H           0     132.440 136.638 137.107  0.00  0.00     0.174 HD
ATOM     12  H           0     130.874 137.025 136.638  0.00  0.00     0.174 HD
ATOM     13  C           0     131.259 134.513 133.597  0.00  0.00     0.217 C 
ATOM     14  N           0     130.728 135.351 134.685  0.00  0.00    -0.191 N 
ATOM     15  N           0     130.509 133.261 133.487  0.00  0.00    -0.183 N 
ATOM     16  C           0     129.286 133.604 132.739  0.00  0.00     0.150 C 
ATOM     17  C           0     129.760 134.621 131.675  0.00  0.00     0.093 C 
ATOM     18  C           0     131.067 135.224 132.248  0.00  0.00     0.209 C 
ATOM     19  H           0     132.433 131.301 135.104  0.00  0.00     0.178 HD
ATOM     20  H           0     133.567 134.639 135.939  0.00  0.00     0.178 HD
ATOM     21  H           0     129.813 135.666 134.764  0.00  0.00     0.180 HD
ENDROOT
BRANCH   6  22
ATOM     22  C           0     133.489 132.497 132.441  0.00  0.00     0.208 C 
BRANCH  22  23
ATOM     23  O           0     134.491 131.446 132.411  0.00  0.00    -0.302 OA
BRANCH  23  24
ATOM     24  C           0     134.157 130.211 131.994  0.00  0.00     0.360 C 
ATOM     25  N           0     133.492 129.377 132.820  0.00  0.00    -0.332 N 
ATOM     26  H           0     133.253 129.669 133.713  0.00  0.00     0.165 HD
ATOM     27  O           0     134.457 129.845 130.875  0.00  0.00    -0.239 OA
BRANCH  25  28
ATOM     28  C           0     133.130 128.032 132.367  0.00  0.00     0.086 C 
ATOM     29  C           0     131.715 127.697 132.844  0.00  0.00     0.025 C 
ATOM     30  C           0     131.336 126.292 132.370  0.00  0.00     0.002 C 
ATOM     31  C           0     132.324 125.276 132.949  0.00  0.00     0.000 C 
ATOM     32  C           0     133.739 125.612 132.472  0.00  0.00     0.002 C 
ATOM     33  C           0     134.117 127.017 132.944  0.00  0.00     0.025 C 
ENDBRANCH  25  28
ENDBRANCH  23  24
ENDBRANCH  22  23
ENDBRANCH   6  22
BRANCH  18  34
ATOM     34  O           0     130.924 136.634 132.437  0.00  0.00    -0.362 OA
ATOM     35  H           0     130.593 136.763 133.337  0.00  0.00     0.213 HD
ENDBRANCH  18  34
BRANCH  18  36
ATOM     36  O           0     132.167 134.946 131.379  0.00  0.00    -0.362 OA
ATOM     37  H           0     132.038 135.483 130.584  0.00  0.00     0.213 HD
ENDBRANCH  18  36
TORSDOF 6
ENDMDL
