# created with PyMOL 2.3.4
@<TRIPOS>MOLECULE
ligand_out_0001
37 40 1                 
SMALL
USER_CHARGES
@<TRIPOS>ATOM
1	   N	132.394	137.931	132.009	N.3	1	UNK0	-0.235	
2	   N	130.850	136.768	133.350	N.3	1	UNK0	-0.218	
3	   N	131.332	135.207	135.962	N.3	1	UNK0	-0.216	
4	   N	132.883	135.376	137.742	N.3	1	UNK0	-0.235	
5	   N	133.546	135.351	135.471	N.3	1	UNK0	-0.191	
6	   N	133.056	136.029	133.202	N.3	1	UNK0	-0.183	
7	   N	129.800	131.724	132.341	N.pl3	1	UNK0	-0.332	
8	   C	132.115	136.950	132.822	C.3	1	UNK0	0.672	
9	   C	130.434	135.414	133.702	C.3	1	UNK0	0.151	
10	   C	131.446	134.700	134.577	C.3	1	UNK0	0.180	
11	   C	132.604	135.315	136.469	C.3	1	UNK0	0.670	
12	   C	132.895	134.976	134.206	C.3	1	UNK0	0.217	
13	   C	134.413	135.842	132.657	C.3	1	UNK0	0.150	
14	   C	134.589	134.308	132.580	C.3	1	UNK0	0.093	
15	   C	133.582	133.736	133.610	C.3	1	UNK0	0.209	
16	   C	130.242	134.608	132.415	C.2	1	UNK0	0.208	
17	   C	128.881	132.647	131.994	C.2	1	UNK0	0.360	
18	   C	129.699	130.358	131.821	C.3	1	UNK0	0.086	
19	   C	129.124	129.442	132.904	C.3	1	UNK0	0.025	
20	   C	129.018	128.015	132.361	C.3	1	UNK0	0.002	
21	   C	130.409	127.518	131.958	C.3	1	UNK0	0.000	
22	   C	130.983	128.435	130.875	C.3	1	UNK0	0.002	
23	   C	131.088	129.862	131.418	C.3	1	UNK0	0.025	
24	   O	128.974	133.903	132.471	O.2	1	UNK0	-0.302	
25	   O	127.970	132.346	131.249	O.co2	1	UNK0	-0.239	
26	   O	134.271	133.005	134.628	O.2	1	UNK0	-0.362	
27	   O	132.622	132.901	132.959	O.2	1	UNK0	-0.362	
28	   H	131.702	138.563	131.758	 H	1	UNK0	0.174	
29	   H	133.293	138.031	131.660	 H	1	UNK0	0.174	
30	   H	132.167	135.346	138.396	 H	1	UNK0	0.174	
31	   H	133.804	135.452	138.033	 H	1	UNK0	0.174	
32	   H	130.254	137.522	133.486	 H	1	UNK0	0.178	
33	   H	130.509	135.422	136.428	 H	1	UNK0	0.178	
34	   H	134.482	135.581	135.582	 H	1	UNK0	0.180	
35	   H	130.528	131.964	132.935	 H	1	UNK0	0.165	
36	   H	135.041	132.599	134.208	 H	1	UNK0	0.213	
37	   H	131.858	132.841	133.549	 H	1	UNK0	0.213	
@<TRIPOS>BOND
1 1 8 1
2 1 28 1
3 1 29 1
4 2 9 1
5 2 32 1
6 3 11 1
7 3 33 1
8 4 30 1
9 4 31 1
10 5 34 1
11 6 13 1
12 7 18 1
13 7 35 1
14 2 8 1
15 6 8 1
16 9 10 1
17 9 16 1
18 3 10 1
19 10 12 1
20 4 11 1
21 5 11 1
22 5 12 1
23 6 12 1
24 12 15 1
25 13 14 1
26 14 15 1
27 15 26 2
28 15 27 2
29 16 24 2
30 7 17 1
31 17 25 2
32 18 19 1
33 18 23 1
34 19 20 1
35 20 21 1
36 21 22 1
37 22 23 1
38 17 24 2
39 26 36 1
40 27 37 1
@<TRIPOS>SUBSTRUCTURE
1	UNK0	1	GROUP	1 ****	UNK
