MODEL 1
REMARK VINA RESULT:      -7.9      0.000      0.000
REMARK  5 active torsions:
REMARK  status: ('A' for Active; 'I' for Inactive)
REMARK    1  A    between atoms: C_6  and  C_7 
REMARK    2  A    between atoms: C_7  and  O_8 
REMARK    3  A    between atoms: O_8  and  C_9 
REMARK       I    between atoms: C_9  and  N_10 
REMARK    4  A    between atoms: C_24  and  O_25 
REMARK    5  A    between atoms: C_24  and  O_26 
ROOT
ATOM      1  N           0     135.526 136.710 143.293  0.00  0.00    -0.235 N 
ATOM      2  H           0     134.800 137.319 143.084  0.00  0.00     0.174 HD
ATOM      3  H           0     136.426 137.051 143.413  0.00  0.00     0.174 HD
ATOM      4  C           0     135.291 135.434 143.417  0.00  0.00     0.672 C 
ATOM      5  N           0     134.023 134.902 143.261  0.00  0.00    -0.218 N 
ATOM      6  C           0     133.903 133.526 142.785  0.00  0.00     0.151 C 
ATOM      7  C           0     134.751 132.557 143.586  0.00  0.00     0.180 C 
ATOM      8  N           0     134.078 132.270 144.871  0.00  0.00    -0.216 N 
ATOM      9  C           0     135.045 132.220 145.845  0.00  0.00     0.670 C 
ATOM     10  N           0     134.887 131.648 147.005  0.00  0.00    -0.235 N 
ATOM     11  H           0     134.043 131.223 147.226  0.00  0.00     0.174 HD
ATOM     12  H           0     135.612 131.649 147.649  0.00  0.00     0.174 HD
ATOM     13  C           0     136.104 133.111 144.000  0.00  0.00     0.217 C 
ATOM     14  N           0     136.200 132.846 145.443  0.00  0.00    -0.191 N 
ATOM     15  N           0     136.285 134.533 143.708  0.00  0.00    -0.179 N 
ATOM     16  C           0     137.734 134.783 143.726  0.00  0.00     0.106 C 
ATOM     17  C           0     138.161 135.282 145.109  0.00  0.00     0.033 C 
ATOM     18  C           0     138.422 133.437 143.416  0.00  0.00     0.098 C 
ATOM     19  C           0     137.263 132.415 143.258  0.00  0.00     0.210 C 
ATOM     20  H           0     133.234 135.429 143.463  0.00  0.00     0.178 HD
ATOM     21  H           0     133.125 132.140 145.003  0.00  0.00     0.178 HD
ATOM     22  H           0     136.951 133.071 146.015  0.00  0.00     0.180 HD
ENDROOT
BRANCH   6  23
ATOM     23  C           0     134.340 133.470 141.320  0.00  0.00     0.208 C 
BRANCH  23  24
ATOM     24  O           0     133.209 133.779 140.465  0.00  0.00    -0.302 OA
BRANCH  24  25
ATOM     25  C           0     133.300 134.771 139.559  0.00  0.00     0.358 C 
ATOM     26  N           0     133.568 136.029 139.962  0.00  0.00    -0.346 N 
ATOM     27  H           0     133.694 136.219 140.905  0.00  0.00     0.161 HD
ATOM     28  H           0     133.634 136.743 139.309  0.00  0.00     0.161 HD
ATOM     29  O           0     133.141 134.532 138.378  0.00  0.00    -0.239 OA
ENDBRANCH  24  25
ENDBRANCH  23  24
ENDBRANCH   6  23
BRANCH  19  30
ATOM     30  O           0     137.597 131.170 143.875  0.00  0.00    -0.362 OA
ATOM     31  H           0     136.772 130.795 144.210  0.00  0.00     0.213 HD
ENDBRANCH  19  30
BRANCH  19  32
ATOM     32  O           0     136.936 132.227 141.879  0.00  0.00    -0.362 OA
ATOM     33  H           0     136.077 132.647 141.736  0.00  0.00     0.213 HD
ENDBRANCH  19  32
TORSDOF 5
ENDMDL
MODEL 2
REMARK VINA RESULT:      -7.4      2.520      3.675
REMARK  5 active torsions:
REMARK  status: ('A' for Active; 'I' for Inactive)
REMARK    1  A    between atoms: C_6  and  C_7 
REMARK    2  A    between atoms: C_7  and  O_8 
REMARK    3  A    between atoms: O_8  and  C_9 
REMARK       I    between atoms: C_9  and  N_10 
REMARK    4  A    between atoms: C_24  and  O_25 
REMARK    5  A    between atoms: C_24  and  O_26 
ROOT
ATOM      1  N           0     136.195 134.819 147.751  0.00  0.00    -0.235 N 
ATOM      2  H           0     135.340 134.722 148.199  0.00  0.00     0.174 HD
ATOM      3  H           0     136.726 135.619 147.888  0.00  0.00     0.174 HD
ATOM      4  C           0     136.633 133.872 146.970  0.00  0.00     0.672 C 
ATOM      5  N           0     135.915 132.710 146.749  0.00  0.00    -0.218 N 
ATOM      6  C           0     136.086 132.021 145.473  0.00  0.00     0.151 C 
ATOM      7  C           0     137.544 131.773 145.136  0.00  0.00     0.180 C 
ATOM      8  N           0     138.036 130.625 145.928  0.00  0.00    -0.216 N 
ATOM      9  C           0     139.313 130.921 146.340  0.00  0.00     0.670 C 
ATOM     10  N           0     140.179 130.032 146.737  0.00  0.00    -0.235 N 
ATOM     11  H           0     139.937 129.093 146.756  0.00  0.00     0.174 HD
ATOM     12  H           0     141.066 130.309 147.015  0.00  0.00     0.174 HD
ATOM     13  C           0     138.474 132.909 145.526  0.00  0.00     0.217 C 
ATOM     14  N           0     139.564 132.270 146.279  0.00  0.00    -0.191 N 
ATOM     15  N           0     137.834 133.965 146.311  0.00  0.00    -0.179 N 
ATOM     16  C           0     138.697 135.151 146.201  0.00  0.00     0.106 C 
ATOM     17  C           0     139.658 135.211 147.390  0.00  0.00     0.033 C 
ATOM     18  C           0     139.493 135.001 144.886  0.00  0.00     0.098 C 
ATOM     19  C           0     139.042 133.638 144.291  0.00  0.00     0.210 C 
ATOM     20  H           0     135.314 132.361 147.426  0.00  0.00     0.178 HD
ATOM     21  H           0     137.547 129.810 146.122  0.00  0.00     0.178 HD
ATOM     22  H           0     140.331 132.722 146.664  0.00  0.00     0.180 HD
ENDROOT
BRANCH   6  23
ATOM     23  C           0     135.462 132.871 144.365  0.00  0.00     0.208 C 
BRANCH  23  24
ATOM     24  O           0     135.505 132.140 143.111  0.00  0.00    -0.302 OA
BRANCH  24  25
ATOM     25  C           0     135.021 132.702 141.987  0.00  0.00     0.358 C 
ATOM     26  N           0     135.867 133.165 141.046  0.00  0.00    -0.346 N 
ATOM     27  H           0     136.826 133.095 141.180  0.00  0.00     0.161 HD
ATOM     28  H           0     135.518 133.570 140.237  0.00  0.00     0.161 HD
ATOM     29  O           0     133.820 132.790 141.821  0.00  0.00    -0.239 OA
ENDBRANCH  24  25
ENDBRANCH  23  24
ENDBRANCH   6  23
BRANCH  19  30
ATOM     30  O           0     140.156 132.931 143.743  0.00  0.00    -0.362 OA
ATOM     31  H           0     139.996 131.991 143.901  0.00  0.00     0.213 HD
ENDBRANCH  19  30
BRANCH  19  32
ATOM     32  O           0     138.024 133.826 143.306  0.00  0.00    -0.362 OA
ATOM     33  H           0     137.620 134.686 143.483  0.00  0.00     0.213 HD
ENDBRANCH  19  32
TORSDOF 5
ENDMDL
MODEL 3
REMARK VINA RESULT:      -7.3      1.764      1.995
REMARK  5 active torsions:
REMARK  status: ('A' for Active; 'I' for Inactive)
REMARK    1  A    between atoms: C_6  and  C_7 
REMARK    2  A    between atoms: C_7  and  O_8 
REMARK    3  A    between atoms: O_8  and  C_9 
REMARK       I    between atoms: C_9  and  N_10 
REMARK    4  A    between atoms: C_24  and  O_25 
REMARK    5  A    between atoms: C_24  and  O_26 
ROOT
ATOM      1  N           0     136.448 135.829 143.558  0.00  0.00    -0.235 N 
ATOM      2  H           0     135.798 136.413 143.137  0.00  0.00     0.174 HD
ATOM      3  H           0     137.381 136.092 143.601  0.00  0.00     0.174 HD
ATOM      4  C           0     136.067 134.694 144.073  0.00  0.00     0.672 C 
ATOM      5  N           0     134.748 134.278 144.042  0.00  0.00    -0.218 N 
ATOM      6  C           0     134.473 132.844 144.025  0.00  0.00     0.151 C 
ATOM      7  C           0     135.201 132.098 145.126  0.00  0.00     0.180 C 
ATOM      8  N           0     134.493 132.313 146.407  0.00  0.00    -0.216 N 
ATOM      9  C           0     135.444 132.475 147.385  0.00  0.00     0.670 C 
ATOM     10  N           0     135.216 132.326 148.660  0.00  0.00    -0.235 N 
ATOM     11  H           0     134.328 132.087 148.969  0.00  0.00     0.174 HD
ATOM     12  H           0     135.934 132.455 149.299  0.00  0.00     0.174 HD
ATOM     13  C           0     136.607 132.607 145.398  0.00  0.00     0.217 C 
ATOM     14  N           0     136.665 132.811 146.853  0.00  0.00    -0.191 N 
ATOM     15  N           0     136.951 133.832 144.676  0.00  0.00    -0.179 N 
ATOM     16  C           0     138.418 133.919 144.673  0.00  0.00     0.106 C 
ATOM     17  C           0     138.894 134.786 145.841  0.00  0.00     0.033 C 
ATOM     18  C           0     138.949 132.478 144.836  0.00  0.00     0.098 C 
ATOM     19  C           0     137.681 131.590 144.964  0.00  0.00     0.210 C 
ATOM     20  H           0     134.024 134.924 144.033  0.00  0.00     0.178 HD
ATOM     21  H           0     133.531 132.335 146.534  0.00  0.00     0.178 HD
ATOM     22  H           0     137.434 133.126 147.353  0.00  0.00     0.180 HD
ENDROOT
BRANCH   6  23
ATOM     23  C           0     134.907 132.274 142.673  0.00  0.00     0.208 C 
BRANCH  23  24
ATOM     24  O           0     133.733 131.963 141.878  0.00  0.00    -0.302 OA
BRANCH  24  25
ATOM     25  C           0     132.878 132.941 141.527  0.00  0.00     0.358 C 
ATOM     26  N           0     131.553 132.697 141.490  0.00  0.00    -0.346 N 
ATOM     27  H           0     131.216 131.816 141.715  0.00  0.00     0.161 HD
ATOM     28  H           0     130.937 133.403 141.237  0.00  0.00     0.161 HD
ATOM     29  O           0     133.301 134.045 141.245  0.00  0.00    -0.239 OA
ENDBRANCH  24  25
ENDBRANCH  23  24
ENDBRANCH   6  23
BRANCH  19  30
ATOM     30  O           0     137.868 130.581 145.959  0.00  0.00    -0.362 OA
ATOM     31  H           0     137.845 129.730 145.501  0.00  0.00     0.213 HD
ENDBRANCH  19  30
BRANCH  19  32
ATOM     32  O           0     137.341 131.006 143.705  0.00  0.00    -0.362 OA
ATOM     33  H           0     136.549 131.462 143.390  0.00  0.00     0.213 HD
ENDBRANCH  19  32
TORSDOF 5
ENDMDL
MODEL 4
REMARK VINA RESULT:      -7.1      2.355      3.275
REMARK  5 active torsions:
REMARK  status: ('A' for Active; 'I' for Inactive)
REMARK    1  A    between atoms: C_6  and  C_7 
REMARK    2  A    between atoms: C_7  and  O_8 
REMARK    3  A    between atoms: O_8  and  C_9 
REMARK       I    between atoms: C_9  and  N_10 
REMARK    4  A    between atoms: C_24  and  O_25 
REMARK    5  A    between atoms: C_24  and  O_26 
ROOT
ATOM      1  N           0     139.947 135.461 143.862  0.00  0.00    -0.235 N 
ATOM      2  H           0     139.892 136.245 143.294  0.00  0.00     0.174 HD
ATOM      3  H           0     140.814 135.100 144.107  0.00  0.00     0.174 HD
ATOM      4  C           0     138.859 134.896 144.302  0.00  0.00     0.672 C 
ATOM      5  N           0     137.600 135.377 143.985  0.00  0.00    -0.218 N 
ATOM      6  C           0     136.488 134.432 143.937  0.00  0.00     0.151 C 
ATOM      7  C           0     136.392 133.582 145.189  0.00  0.00     0.180 C 
ATOM      8  N           0     135.785 134.384 146.274  0.00  0.00    -0.216 N 
ATOM      9  C           0     136.451 134.081 147.437  0.00  0.00     0.670 C 
ATOM     10  N           0     135.980 134.307 148.631  0.00  0.00    -0.235 N 
ATOM     11  H           0     135.106 134.714 148.739  0.00  0.00     0.174 HD
ATOM     12  H           0     136.503 134.068 149.412  0.00  0.00     0.174 HD
ATOM     13  C           0     137.735 133.158 145.758  0.00  0.00     0.217 C 
ATOM     14  N           0     137.674 133.510 147.185  0.00  0.00    -0.191 N 
ATOM     15  N           0     138.887 133.782 145.106  0.00  0.00    -0.179 N 
ATOM     16  C           0     140.054 132.950 145.431  0.00  0.00     0.106 C 
ATOM     17  C           0     140.775 133.515 146.656  0.00  0.00     0.033 C 
ATOM     18  C           0     139.520 131.535 145.738  0.00  0.00     0.098 C 
ATOM     19  C           0     137.977 131.643 145.598  0.00  0.00     0.210 C 
ATOM     20  H           0     137.461 136.319 143.801  0.00  0.00     0.178 HD
ATOM     21  H           0     135.050 135.010 146.182  0.00  0.00     0.178 HD
ATOM     22  H           0     138.376 133.362 147.838  0.00  0.00     0.180 HD
ENDROOT
BRANCH   6  23
ATOM     23  C           0     136.674 133.511 142.730  0.00  0.00     0.208 C 
BRANCH  23  24
ATOM     24  O           0     135.670 132.463 142.760  0.00  0.00    -0.302 OA
BRANCH  24  25
ATOM     25  C           0     134.549 132.582 142.025  0.00  0.00     0.358 C 
ATOM     26  N           0     133.515 131.742 142.231  0.00  0.00    -0.346 N 
ATOM     27  H           0     133.580 131.051 142.908  0.00  0.00     0.161 HD
ATOM     28  H           0     132.707 131.829 141.701  0.00  0.00     0.161 HD
ATOM     29  O           0     134.468 133.449 141.177  0.00  0.00    -0.239 OA
ENDBRANCH  24  25
ENDBRANCH  23  24
ENDBRANCH   6  23
BRANCH  19  30
ATOM     30  O           0     137.320 130.905 146.630  0.00  0.00    -0.362 OA
ATOM     31  H           0     137.664 131.235 147.471  0.00  0.00     0.213 HD
ENDBRANCH  19  30
BRANCH  19  32
ATOM     32  O           0     137.552 131.201 144.307  0.00  0.00    -0.362 OA
ATOM     33  H           0     138.054 131.711 143.658  0.00  0.00     0.213 HD
ENDBRANCH  19  32
TORSDOF 5
ENDMDL
MODEL 5
REMARK VINA RESULT:      -7.0      3.190      5.884
REMARK  5 active torsions:
REMARK  status: ('A' for Active; 'I' for Inactive)
REMARK    1  A    between atoms: C_6  and  C_7 
REMARK    2  A    between atoms: C_7  and  O_8 
REMARK    3  A    between atoms: O_8  and  C_9 
REMARK       I    between atoms: C_9  and  N_10 
REMARK    4  A    between atoms: C_24  and  O_25 
REMARK    5  A    between atoms: C_24  and  O_26 
ROOT
ATOM      1  N           0     139.018 130.511 146.004  0.00  0.00    -0.235 N 
ATOM      2  H           0     139.185 129.630 146.376  0.00  0.00     0.174 HD
ATOM      3  H           0     139.761 131.063 145.715  0.00  0.00     0.174 HD
ATOM      4  C           0     137.797 130.948 145.886  0.00  0.00     0.672 C 
ATOM      5  N           0     136.704 130.195 146.278  0.00  0.00    -0.218 N 
ATOM      6  C           0     135.501 130.895 146.720  0.00  0.00     0.151 C 
ATOM      7  C           0     135.045 131.950 145.731  0.00  0.00     0.180 C 
ATOM      8  N           0     134.357 131.290 144.600  0.00  0.00    -0.216 N 
ATOM      9  C           0     134.736 131.938 143.449  0.00  0.00     0.670 C 
ATOM     10  N           0     134.077 131.878 142.326  0.00  0.00    -0.235 N 
ATOM     11  H           0     133.265 131.351 142.266  0.00  0.00     0.174 HD
ATOM     12  H           0     134.400 132.360 141.549  0.00  0.00     0.174 HD
ATOM     13  C           0     136.179 132.715 145.070  0.00  0.00     0.217 C 
ATOM     14  N           0     135.892 132.655 143.629  0.00  0.00    -0.191 N 
ATOM     15  N           0     137.512 132.188 145.369  0.00  0.00    -0.179 N 
ATOM     16  C           0     138.466 133.265 145.065  0.00  0.00     0.106 C 
ATOM     17  C           0     139.006 133.100 143.643  0.00  0.00     0.033 C 
ATOM     18  C           0     137.689 134.594 145.183  0.00  0.00     0.098 C 
ATOM     19  C           0     136.233 134.184 145.537  0.00  0.00     0.210 C 
ATOM     20  H           0     136.737 129.226 146.258  0.00  0.00     0.178 HD
ATOM     21  H           0     133.749 130.537 144.660  0.00  0.00     0.178 HD
ATOM     22  H           0     136.426 133.057 142.925  0.00  0.00     0.180 HD
ENDROOT
BRANCH   6  23
ATOM     23  C           0     135.788 131.570 148.063  0.00  0.00     0.208 C 
BRANCH  23  24
ATOM     24  O           0     134.574 132.190 148.563  0.00  0.00    -0.302 OA
BRANCH  24  25
ATOM     25  C           0     133.672 131.455 149.241  0.00  0.00     0.358 C 
ATOM     26  N           0     132.363 131.770 149.180  0.00  0.00    -0.346 N 
ATOM     27  H           0     132.071 132.526 148.647  0.00  0.00     0.161 HD
ATOM     28  H           0     131.714 131.240 149.669  0.00  0.00     0.161 HD
ATOM     29  O           0     134.039 130.508 149.908  0.00  0.00    -0.239 OA
ENDBRANCH  24  25
ENDBRANCH  23  24
ENDBRANCH   6  23
BRANCH  19  30
ATOM     30  O           0     135.291 134.987 144.822  0.00  0.00    -0.362 OA
ATOM     31  H           0     135.572 134.989 143.898  0.00  0.00     0.213 HD
ENDBRANCH  19  30
BRANCH  19  32
ATOM     32  O           0     136.010 134.272 146.946  0.00  0.00    -0.362 OA
ATOM     33  H           0     135.510 133.484 147.200  0.00  0.00     0.213 HD
ENDBRANCH  19  32
TORSDOF 5
ENDMDL
MODEL 6
REMARK VINA RESULT:      -6.9      2.662      4.325
REMARK  5 active torsions:
REMARK  status: ('A' for Active; 'I' for Inactive)
REMARK    1  A    between atoms: C_6  and  C_7 
REMARK    2  A    between atoms: C_7  and  O_8 
REMARK    3  A    between atoms: O_8  and  C_9 
REMARK       I    between atoms: C_9  and  N_10 
REMARK    4  A    between atoms: C_24  and  O_25 
REMARK    5  A    between atoms: C_24  and  O_26 
ROOT
ATOM      1  N           0     135.035 129.937 145.419  0.00  0.00    -0.235 N 
ATOM      2  H           0     134.676 129.372 144.716  0.00  0.00     0.174 HD
ATOM      3  H           0     134.866 129.720 146.349  0.00  0.00     0.174 HD
ATOM      4  C           0     135.751 130.982 145.113  0.00  0.00     0.672 C 
ATOM      5  N           0     136.026 131.328 143.802  0.00  0.00    -0.218 N 
ATOM      6  C           0     136.241 132.738 143.487  0.00  0.00     0.151 C 
ATOM      7  C           0     137.267 133.387 144.395  0.00  0.00     0.180 C 
ATOM      8  N           0     138.623 132.987 143.959  0.00  0.00    -0.216 N 
ATOM      9  C           0     139.373 132.763 145.088  0.00  0.00     0.670 C 
ATOM     10  N           0     140.676 132.749 145.110  0.00  0.00    -0.235 N 
ATOM     11  H           0     141.177 132.903 144.294  0.00  0.00     0.174 HD
ATOM     12  H           0     141.144 132.584 145.943  0.00  0.00     0.174 HD
ATOM     13  C           0     137.199 132.926 145.841  0.00  0.00     0.217 C 
ATOM     14  N           0     138.579 132.556 146.189  0.00  0.00    -0.191 N 
ATOM     15  N           0     136.277 131.813 146.072  0.00  0.00    -0.179 N 
ATOM     16  C           0     135.983 131.806 147.513  0.00  0.00     0.106 C 
ATOM     17  C           0     136.920 130.834 148.233  0.00  0.00     0.033 C 
ATOM     18  C           0     136.220 133.243 148.023  0.00  0.00     0.098 C 
ATOM     19  C           0     136.698 134.042 146.779  0.00  0.00     0.210 C 
ATOM     20  H           0     136.075 130.651 143.110  0.00  0.00     0.178 HD
ATOM     21  H           0     138.927 132.899 143.042  0.00  0.00     0.178 HD
ATOM     22  H           0     138.880 132.226 147.051  0.00  0.00     0.180 HD
ENDROOT
BRANCH   6  23
ATOM     23  C           0     134.913 133.484 143.631  0.00  0.00     0.208 C 
BRANCH  23  24
ATOM     24  O           0     135.141 134.911 143.488  0.00  0.00    -0.302 OA
BRANCH  24  25
ATOM     25  C           0     134.399 135.629 142.625  0.00  0.00     0.358 C 
ATOM     26  N           0     134.483 136.974 142.621  0.00  0.00    -0.346 N 
ATOM     27  H           0     135.076 137.425 143.242  0.00  0.00     0.161 HD
ATOM     28  H           0     133.947 137.492 141.999  0.00  0.00     0.161 HD
ATOM     29  O           0     133.655 135.064 141.848  0.00  0.00    -0.239 OA
ENDBRANCH  24  25
ENDBRANCH  23  24
ENDBRANCH   6  23
BRANCH  19  30
ATOM     30  O           0     137.757 134.936 147.128  0.00  0.00    -0.362 OA
ATOM     31  H           0     138.266 135.093 146.321  0.00  0.00     0.213 HD
ENDBRANCH  19  30
BRANCH  19  32
ATOM     32  O           0     135.611 134.751 146.182  0.00  0.00    -0.362 OA
ATOM     33  H           0     135.038 135.045 146.904  0.00  0.00     0.213 HD
ENDBRANCH  19  32
TORSDOF 5
ENDMDL
MODEL 7
REMARK VINA RESULT:      -6.8      5.455      9.881
REMARK  5 active torsions:
REMARK  status: ('A' for Active; 'I' for Inactive)
REMARK    1  A    between atoms: C_6  and  C_7 
REMARK    2  A    between atoms: C_7  and  O_8 
REMARK    3  A    between atoms: O_8  and  C_9 
REMARK       I    between atoms: C_9  and  N_10 
REMARK    4  A    between atoms: C_24  and  O_25 
REMARK    5  A    between atoms: C_24  and  O_26 
ROOT
ATOM      1  N           0     130.348 132.792 136.362  0.00  0.00    -0.235 N 
ATOM      2  H           0     129.769 133.144 137.057  0.00  0.00     0.174 HD
ATOM      3  H           0     130.284 131.859 136.104  0.00  0.00     0.174 HD
ATOM      4  C           0     131.207 133.574 135.772  0.00  0.00     0.672 C 
ATOM      5  N           0     131.331 134.912 136.101  0.00  0.00    -0.218 N 
ATOM      6  C           0     132.631 135.553 135.922  0.00  0.00     0.151 C 
ATOM      7  C           0     133.204 135.330 134.536  0.00  0.00     0.180 C 
ATOM      8  N           0     132.525 136.230 133.579  0.00  0.00    -0.216 N 
ATOM      9  C           0     132.320 135.524 132.418  0.00  0.00     0.670 C 
ATOM     10  N           0     132.085 136.073 131.260  0.00  0.00    -0.235 N 
ATOM     11  H           0     132.045 137.039 131.179  0.00  0.00     0.174 HD
ATOM     12  H           0     131.949 135.515 130.478  0.00  0.00     0.174 HD
ATOM     13  C           0     132.949 133.942 133.974  0.00  0.00     0.217 C 
ATOM     14  N           0     132.395 134.169 132.630  0.00  0.00    -0.191 N 
ATOM     15  N           0     132.050 133.121 134.787  0.00  0.00    -0.179 N 
ATOM     16  C           0     132.276 131.726 134.383  0.00  0.00     0.106 C 
ATOM     17  C           0     131.258 131.318 133.316  0.00  0.00     0.033 C 
ATOM     18  C           0     133.705 131.657 133.802  0.00  0.00     0.098 C 
ATOM     19  C           0     134.245 133.112 133.876  0.00  0.00     0.210 C 
ATOM     20  H           0     130.573 135.412 136.441  0.00  0.00     0.178 HD
ATOM     21  H           0     132.270 137.152 133.741  0.00  0.00     0.178 HD
ATOM     22  H           0     132.130 133.481 132.000  0.00  0.00     0.180 HD
ENDROOT
BRANCH   6  23
ATOM     23  C           0     133.607 134.988 136.956  0.00  0.00     0.208 C 
BRANCH  23  24
ATOM     24  O           0     132.862 134.398 138.053  0.00  0.00    -0.302 OA
BRANCH  24  25
ATOM     25  C           0     133.036 134.854 139.308  0.00  0.00     0.358 C 
ATOM     26  N           0     133.546 136.084 139.513  0.00  0.00    -0.346 N 
ATOM     27  H           0     133.790 136.640 138.756  0.00  0.00     0.161 HD
ATOM     28  H           0     133.671 136.412 140.418  0.00  0.00     0.161 HD
ATOM     29  O           0     132.731 134.157 140.255  0.00  0.00    -0.239 OA
ENDBRANCH  24  25
ENDBRANCH  23  24
ENDBRANCH   6  23
BRANCH  19  30
ATOM     30  O           0     134.980 133.441 132.696  0.00  0.00    -0.362 OA
ATOM     31  H           0     135.910 133.500 132.954  0.00  0.00     0.213 HD
ENDBRANCH  19  30
BRANCH  19  32
ATOM     32  O           0     135.048 133.296 135.044  0.00  0.00    -0.362 OA
ATOM     33  H           0     135.264 134.237 135.089  0.00  0.00     0.213 HD
ENDBRANCH  19  32
TORSDOF 5
ENDMDL
MODEL 8
REMARK VINA RESULT:      -6.5      3.328      4.868
REMARK  5 active torsions:
REMARK  status: ('A' for Active; 'I' for Inactive)
REMARK    1  A    between atoms: C_6  and  C_7 
REMARK    2  A    between atoms: C_7  and  O_8 
REMARK    3  A    between atoms: O_8  and  C_9 
REMARK       I    between atoms: C_9  and  N_10 
REMARK    4  A    between atoms: C_24  and  O_25 
REMARK    5  A    between atoms: C_24  and  O_26 
ROOT
ATOM      1  N           0     136.200 133.891 142.456  0.00  0.00    -0.235 N 
ATOM      2  H           0     135.353 133.917 141.984  0.00  0.00     0.174 HD
ATOM      3  H           0     137.018 134.139 141.997  0.00  0.00     0.174 HD
ATOM      4  C           0     136.239 133.531 143.708  0.00  0.00     0.672 C 
ATOM      5  N           0     135.099 133.176 144.407  0.00  0.00    -0.218 N 
ATOM      6  C           0     135.227 132.223 145.506  0.00  0.00     0.151 C 
ATOM      7  C           0     136.310 132.615 146.492  0.00  0.00     0.180 C 
ATOM      8  N           0     135.802 133.695 147.366  0.00  0.00    -0.216 N 
ATOM      9  C           0     136.826 134.590 147.557  0.00  0.00     0.670 C 
ATOM     10  N           0     136.871 135.454 148.533  0.00  0.00    -0.235 N 
ATOM     11  H           0     136.149 135.493 149.180  0.00  0.00     0.174 HD
ATOM     12  H           0     137.625 136.059 148.610  0.00  0.00     0.174 HD
ATOM     13  C           0     137.548 133.218 145.850  0.00  0.00     0.217 C 
ATOM     14  N           0     137.798 134.461 146.596  0.00  0.00    -0.191 N 
ATOM     15  N           0     137.414 133.476 144.416  0.00  0.00    -0.179 N 
ATOM     16  C           0     138.779 133.601 143.884  0.00  0.00     0.106 C 
ATOM     17  C           0     139.193 135.074 143.844  0.00  0.00     0.033 C 
ATOM     18  C           0     139.703 132.820 144.842  0.00  0.00     0.098 C 
ATOM     19  C           0     138.768 132.282 145.961  0.00  0.00     0.210 C 
ATOM     20  H           0     134.235 133.552 144.173  0.00  0.00     0.178 HD
ATOM     21  H           0     134.908 133.760 147.737  0.00  0.00     0.178 HD
ATOM     22  H           0     138.525 135.083 146.438  0.00  0.00     0.180 HD
ENDROOT
BRANCH   6  23
ATOM     23  C           0     135.562 130.846 144.929  0.00  0.00     0.208 C 
BRANCH  23  24
ATOM     24  O           0     134.683 129.849 145.514  0.00  0.00    -0.302 OA
BRANCH  24  25
ATOM     25  C           0     135.150 129.009 146.456  0.00  0.00     0.358 C 
ATOM     26  N           0     136.462 129.007 146.767  0.00  0.00    -0.346 N 
ATOM     27  H           0     137.069 129.610 146.310  0.00  0.00     0.161 HD
ATOM     28  H           0     136.798 128.401 147.446  0.00  0.00     0.161 HD
ATOM     29  O           0     134.389 128.254 147.028  0.00  0.00    -0.239 OA
ENDBRANCH  24  25
ENDBRANCH  23  24
ENDBRANCH   6  23
BRANCH  19  30
ATOM     30  O           0     139.392 132.397 147.241  0.00  0.00    -0.362 OA
ATOM     31  H           0     138.773 132.873 147.811  0.00  0.00     0.213 HD
ENDBRANCH  19  30
BRANCH  19  32
ATOM     32  O           0     138.390 130.929 145.699  0.00  0.00    -0.362 OA
ATOM     33  H           0     138.376 130.824 144.738  0.00  0.00     0.213 HD
ENDBRANCH  19  32
TORSDOF 5
ENDMDL
MODEL 9
REMARK VINA RESULT:      -6.4      3.841      5.620
REMARK  5 active torsions:
REMARK  status: ('A' for Active; 'I' for Inactive)
REMARK    1  A    between atoms: C_6  and  C_7 
REMARK    2  A    between atoms: C_7  and  O_8 
REMARK    3  A    between atoms: O_8  and  C_9 
REMARK       I    between atoms: C_9  and  N_10 
REMARK    4  A    between atoms: C_24  and  O_25 
REMARK    5  A    between atoms: C_24  and  O_26 
ROOT
ATOM      1  N           0     134.479 131.927 143.727  0.00  0.00    -0.235 N 
ATOM      2  H           0     133.619 131.482 143.677  0.00  0.00     0.174 HD
ATOM      3  H           0     134.889 132.283 142.923  0.00  0.00     0.174 HD
ATOM      4  C           0     135.082 132.054 144.876  0.00  0.00     0.672 C 
ATOM      5  N           0     134.534 131.569 146.051  0.00  0.00    -0.218 N 
ATOM      6  C           0     135.440 131.161 147.121  0.00  0.00     0.151 C 
ATOM      7  C           0     136.463 132.229 147.456  0.00  0.00     0.180 C 
ATOM      8  N           0     135.818 133.279 148.275  0.00  0.00    -0.216 N 
ATOM      9  C           0     136.303 134.492 147.851  0.00  0.00     0.670 C 
ATOM     10  N           0     136.246 135.589 148.553  0.00  0.00    -0.235 N 
ATOM     11  H           0     135.842 135.580 149.435  0.00  0.00     0.174 HD
ATOM     12  H           0     136.608 136.414 148.193  0.00  0.00     0.174 HD
ATOM     13  C           0     136.993 132.984 146.249  0.00  0.00     0.217 C 
ATOM     14  N           0     136.854 134.406 146.596  0.00  0.00    -0.191 N 
ATOM     15  N           0     136.302 132.673 144.997  0.00  0.00    -0.179 N 
ATOM     16  C           0     137.196 133.095 143.909  0.00  0.00     0.106 C 
ATOM     17  C           0     136.832 134.510 143.453  0.00  0.00     0.033 C 
ATOM     18  C           0     138.630 133.077 144.479  0.00  0.00     0.098 C 
ATOM     19  C           0     138.472 132.651 145.965  0.00  0.00     0.210 C 
ATOM     20  H           0     133.573 131.502 146.160  0.00  0.00     0.178 HD
ATOM     21  H           0     135.171 133.136 148.984  0.00  0.00     0.178 HD
ATOM     22  H           0     137.110 135.156 146.037  0.00  0.00     0.180 HD
ENDROOT
BRANCH   6  23
ATOM     23  C           0     136.176 129.892 146.689  0.00  0.00     0.208 C 
BRANCH  23  24
ATOM     24  O           0     135.213 128.833 146.442  0.00  0.00    -0.302 OA
BRANCH  24  25
ATOM     25  C           0     134.434 128.384 147.444  0.00  0.00     0.358 C 
ATOM     26  N           0     133.100 128.296 147.272  0.00  0.00    -0.346 N 
ATOM     27  H           0     132.702 128.557 146.427  0.00  0.00     0.161 HD
ATOM     28  H           0     132.539 127.972 147.995  0.00  0.00     0.161 HD
ATOM     29  O           0     134.934 128.058 148.502  0.00  0.00    -0.239 OA
ENDBRANCH  24  25
ENDBRANCH  23  24
ENDBRANCH   6  23
BRANCH  19  30
ATOM     30  O           0     139.342 133.412 146.806  0.00  0.00    -0.362 OA
ATOM     31  H           0     140.158 133.552 146.309  0.00  0.00     0.213 HD
ENDBRANCH  19  30
BRANCH  19  32
ATOM     32  O           0     138.711 131.251 146.120  0.00  0.00    -0.362 OA
ATOM     33  H           0     138.048 130.794 145.584  0.00  0.00     0.213 HD
ENDBRANCH  19  32
TORSDOF 5
ENDMDL
