# created with PyMOL 2.3.4
@<TRIPOS>MOLECULE
ligand_out_0001
33 35 1                 
SMALL
USER_CHARGES
@<TRIPOS>ATOM
1	   N	135.526	136.710	143.293	N.3	1	UNK0	-0.235	
2	   N	134.023	134.902	143.261	N.3	1	UNK0	-0.218	
3	   N	134.078	132.270	144.871	N.3	1	UNK0	-0.216	
4	   N	134.887	131.648	147.005	N.3	1	UNK0	-0.235	
5	   N	136.200	132.846	145.443	N.3	1	UNK0	-0.191	
6	   N	136.285	134.533	143.708	N.3	1	UNK0	-0.179	
7	   N	133.568	136.029	139.962	N.pl3	1	UNK0	-0.346	
8	   C	135.291	135.434	143.417	C.3	1	UNK0	0.672	
9	   C	133.903	133.526	142.785	C.3	1	UNK0	0.151	
10	   C	134.751	132.557	143.586	C.3	1	UNK0	0.180	
11	   C	135.045	132.220	145.845	C.3	1	UNK0	0.670	
12	   C	136.104	133.111	144.000	C.3	1	UNK0	0.217	
13	   C	137.734	134.783	143.726	C.3	1	UNK0	0.106	
14	   C	138.161	135.282	145.109	C.3	1	UNK0	0.033	
15	   C	138.422	133.437	143.416	C.3	1	UNK0	0.098	
16	   C	137.263	132.415	143.258	C.3	1	UNK0	0.210	
17	   C	134.340	133.470	141.320	C.2	1	UNK0	0.208	
18	   C	133.300	134.771	139.559	C.2	1	UNK0	0.358	
19	   O	133.209	133.779	140.465	O.2	1	UNK0	-0.302	
20	   O	133.141	134.532	138.378	O.co2	1	UNK0	-0.239	
21	   O	137.597	131.170	143.875	O.2	1	UNK0	-0.362	
22	   O	136.936	132.227	141.879	O.2	1	UNK0	-0.362	
23	   H	134.800	137.319	143.084	 H	1	UNK0	0.174	
24	   H	136.426	137.051	143.413	 H	1	UNK0	0.174	
25	   H	134.043	131.223	147.226	 H	1	UNK0	0.174	
26	   H	135.612	131.649	147.649	 H	1	UNK0	0.174	
27	   H	133.234	135.429	143.463	 H	1	UNK0	0.178	
28	   H	133.125	132.140	145.003	 H	1	UNK0	0.178	
29	   H	136.951	133.071	146.015	 H	1	UNK0	0.180	
30	   H	133.694	136.219	140.905	 H	1	UNK0	0.161	
31	   H	133.634	136.743	139.309	 H	1	UNK0	0.161	
32	   H	136.772	130.795	144.210	 H	1	UNK0	0.213	
33	   H	136.077	132.647	141.736	 H	1	UNK0	0.213	
@<TRIPOS>BOND
1 1 8 1
2 1 23 1
3 1 24 1
4 2 9 1
5 2 27 1
6 3 11 1
7 3 28 1
8 4 25 1
9 4 26 1
10 5 29 1
11 6 13 1
12 7 30 1
13 7 31 1
14 2 8 1
15 6 8 1
16 9 10 1
17 9 17 1
18 3 10 1
19 10 12 1
20 4 11 1
21 5 11 1
22 5 12 1
23 6 12 1
24 12 16 1
25 13 14 1
26 13 15 1
27 15 16 1
28 16 21 2
29 16 22 2
30 17 19 2
31 7 18 1
32 18 20 2
33 18 19 2
34 21 32 1
35 22 33 1
@<TRIPOS>SUBSTRUCTURE
1	UNK0	1	GROUP	1 ****	UNK
