# created with PyMOL 2.3.4
@<TRIPOS>MOLECULE
ligand_out_0001
32 34 1                 
SMALL
USER_CHARGES
@<TRIPOS>ATOM
1	   N	135.058	136.778	143.147	N.3	1	UNK0	-0.235	
2	   N	133.792	134.798	143.026	N.3	1	UNK0	-0.218	
3	   N	134.086	132.201	144.656	N.3	1	UNK0	-0.216	
4	   N	134.857	131.679	146.831	N.3	1	UNK0	-0.235	
5	   N	136.097	133.018	145.328	N.3	1	UNK0	-0.191	
6	   N	136.051	134.707	143.597	N.3	1	UNK0	-0.183	
7	   N	133.514	136.029	139.871	N.pl3	1	UNK0	-0.346	
8	   C	134.974	135.482	143.255	C.3	1	UNK0	0.672	
9	   C	133.871	133.420	142.552	C.3	1	UNK0	0.151	
10	   C	134.785	132.560	143.404	C.3	1	UNK0	0.180	
11	   C	135.004	132.263	145.676	C.3	1	UNK0	0.670	
12	   C	136.042	133.271	143.878	C.3	1	UNK0	0.217	
13	   C	137.464	135.116	143.702	C.3	1	UNK0	0.150	
14	   C	138.252	133.937	143.082	C.3	1	UNK0	0.093	
15	   C	137.307	132.714	143.203	C.3	1	UNK0	0.209	
16	   C	134.395	133.421	141.115	C.2	1	UNK0	0.208	
17	   C	133.404	134.782	139.371	C.2	1	UNK0	0.358	
18	   O	133.308	133.728	140.203	O.2	1	UNK0	-0.302	
19	   O	133.393	134.609	138.168	O.co2	1	UNK0	-0.239	
20	   O	137.906	131.701	144.014	O.2	1	UNK0	-0.362	
21	   O	136.992	132.197	141.908	O.2	1	UNK0	-0.362	
22	   H	134.276	137.296	142.899	 H	1	UNK0	0.174	
23	   H	135.902	137.225	143.318	 H	1	UNK0	0.174	
24	   H	134.058	131.158	147.013	 H	1	UNK0	0.174	
25	   H	135.545	131.763	147.509	 H	1	UNK0	0.174	
26	   H	132.934	135.224	143.178	 H	1	UNK0	0.178	
27	   H	133.149	131.963	144.743	 H	1	UNK0	0.178	
28	   H	136.788	133.329	145.933	 H	1	UNK0	0.180	
29	   H	133.523	136.167	140.832	 H	1	UNK0	0.161	
30	   H	133.582	136.788	139.271	 H	1	UNK0	0.161	
31	   H	137.757	130.858	143.563	 H	1	UNK0	0.213	
32	   H	137.318	132.841	141.264	 H	1	UNK0	0.213	
@<TRIPOS>BOND
1 1 8 1
2 1 22 1
3 1 23 1
4 2 9 1
5 2 26 1
6 3 11 1
7 3 27 1
8 4 24 1
9 4 25 1
10 5 28 1
11 6 13 1
12 7 29 1
13 7 30 1
14 2 8 1
15 6 8 1
16 9 10 1
17 9 16 1
18 3 10 1
19 10 12 1
20 4 11 1
21 5 11 1
22 5 12 1
23 6 12 1
24 12 15 1
25 13 14 1
26 14 15 1
27 15 20 2
28 15 21 2
29 16 18 2
30 7 17 1
31 17 19 2
32 17 18 2
33 20 31 1
34 21 32 1
@<TRIPOS>SUBSTRUCTURE
1	UNK0	1	GROUP	1 ****	UNK
