MODEL 1
REMARK VINA RESULT:      -7.8      0.000      0.000
REMARK  5 active torsions:
REMARK  status: ('A' for Active; 'I' for Inactive)
REMARK    1  A    between atoms: C_6  and  C_7 
REMARK    2  A    between atoms: C_7  and  O_8 
REMARK    3  A    between atoms: O_8  and  C_9 
REMARK       I    between atoms: C_9  and  N_10 
REMARK    4  A    between atoms: C_24  and  O_25 
REMARK    5  A    between atoms: C_24  and  O_26 
ROOT
ATOM      1  N           0     135.004 136.755 143.165  0.00  0.00    -0.235 N 
ATOM      2  H           0     134.219 137.267 142.916  0.00  0.00     0.174 HD
ATOM      3  H           0     135.841 137.209 143.349  0.00  0.00     0.174 HD
ATOM      4  C           0     134.933 135.457 143.259  0.00  0.00     0.672 C 
ATOM      5  N           0     133.761 134.764 143.012  0.00  0.00    -0.218 N 
ATOM      6  C           0     133.858 133.391 142.524  0.00  0.00     0.151 C 
ATOM      7  C           0     134.773 132.532 143.374  0.00  0.00     0.180 C 
ATOM      8  N           0     134.067 132.152 144.617  0.00  0.00    -0.215 N 
ATOM      9  C           0     134.975 132.213 145.645  0.00  0.00     0.672 C 
ATOM     10  N           0     134.823 131.614 146.793  0.00  0.00    -0.235 N 
ATOM     11  H           0     134.028 131.084 146.961  0.00  0.00     0.174 HD
ATOM     12  H           0     135.504 131.699 147.478  0.00  0.00     0.174 HD
ATOM     13  C           0     136.018 133.250 143.868  0.00  0.00     0.219 C 
ATOM     14  N           0     136.062 132.983 145.316  0.00  0.00    -0.187 N 
ATOM     15  C           0     137.093 133.454 146.244  0.00  0.00     0.171 C 
ATOM     16  N           0     136.016 134.690 143.602  0.00  0.00    -0.183 N 
ATOM     17  C           0     137.423 135.112 143.724  0.00  0.00     0.150 C 
ATOM     18  C           0     138.228 133.948 143.100  0.00  0.00     0.093 C 
ATOM     19  C           0     137.295 132.713 143.199  0.00  0.00     0.210 C 
ATOM     20  H           0     132.896 135.179 143.160  0.00  0.00     0.178 HD
ATOM     21  H           0     133.132 131.904 144.691  0.00  0.00     0.178 HD
ENDROOT
BRANCH   6  22
ATOM     22  C           0     134.395 133.413 141.091  0.00  0.00     0.208 C 
BRANCH  22  23
ATOM     23  O           0     133.316 133.733 140.175  0.00  0.00    -0.302 OA
BRANCH  23  24
ATOM     24  C           0     133.407 134.815 139.379  0.00  0.00     0.358 C 
ATOM     25  N           0     133.560 136.040 139.922  0.00  0.00    -0.346 N 
ATOM     26  H           0     133.605 136.140 140.885  0.00  0.00     0.161 HD
ATOM     27  H           0     133.625 136.819 139.349  0.00  0.00     0.161 HD
ATOM     28  O           0     133.350 134.688 138.172  0.00  0.00    -0.239 OA
ENDBRANCH  23  24
ENDBRANCH  22  23
ENDBRANCH   6  22
BRANCH  19  29
ATOM     29  O           0     137.898 131.698 144.004  0.00  0.00    -0.362 OA
ATOM     30  H           0     137.743 130.856 143.554  0.00  0.00     0.213 HD
ENDBRANCH  19  29
BRANCH  19  31
ATOM     31  O           0     136.998 132.208 141.897  0.00  0.00    -0.362 OA
ATOM     32  H           0     137.845 131.995 141.479  0.00  0.00     0.213 HD
ENDBRANCH  19  31
TORSDOF 5
ENDMDL
MODEL 2
REMARK VINA RESULT:      -7.3      1.748      5.678
REMARK  5 active torsions:
REMARK  status: ('A' for Active; 'I' for Inactive)
REMARK    1  A    between atoms: C_6  and  C_7 
REMARK    2  A    between atoms: C_7  and  O_8 
REMARK    3  A    between atoms: O_8  and  C_9 
REMARK       I    between atoms: C_9  and  N_10 
REMARK    4  A    between atoms: C_24  and  O_25 
REMARK    5  A    between atoms: C_24  and  O_26 
ROOT
ATOM      1  N           0     134.606 131.839 146.658  0.00  0.00    -0.235 N 
ATOM      2  H           0     134.709 131.970 147.613  0.00  0.00     0.174 HD
ATOM      3  H           0     134.057 131.111 146.325  0.00  0.00     0.174 HD
ATOM      4  C           0     135.198 132.643 145.822  0.00  0.00     0.672 C 
ATOM      5  N           0     135.987 133.698 146.248  0.00  0.00    -0.218 N 
ATOM      6  C           0     137.074 134.145 145.381  0.00  0.00     0.151 C 
ATOM      7  C           0     136.616 134.409 143.960  0.00  0.00     0.180 C 
ATOM      8  N           0     135.904 135.704 143.912  0.00  0.00    -0.215 N 
ATOM      9  C           0     134.832 135.557 143.066  0.00  0.00     0.672 C 
ATOM     10  N           0     134.201 136.549 142.502  0.00  0.00    -0.235 N 
ATOM     11  H           0     134.484 137.461 142.671  0.00  0.00     0.174 HD
ATOM     12  H           0     133.450 136.375 141.914  0.00  0.00     0.174 HD
ATOM     13  C           0     135.593 133.412 143.440  0.00  0.00     0.219 C 
ATOM     14  N           0     134.505 134.236 142.888  0.00  0.00    -0.187 N 
ATOM     15  C           0     133.285 133.731 142.252  0.00  0.00     0.171 C 
ATOM     16  N           0     135.088 132.495 144.464  0.00  0.00    -0.183 N 
ATOM     17  C           0     134.496 131.368 143.721  0.00  0.00     0.150 C 
ATOM     18  C           0     135.453 131.153 142.525  0.00  0.00     0.093 C 
ATOM     19  C           0     136.178 132.510 142.339  0.00  0.00     0.210 C 
ATOM     20  H           0     135.821 134.130 147.101  0.00  0.00     0.178 HD
ATOM     21  H           0     136.150 136.511 144.390  0.00  0.00     0.178 HD
ENDROOT
BRANCH   6  22
ATOM     22  C           0     138.160 133.068 145.356  0.00  0.00     0.208 C 
BRANCH  22  23
ATOM     23  O           0     138.473 132.665 146.715  0.00  0.00    -0.302 OA
BRANCH  23  24
ATOM     24  C           0     138.532 131.358 147.033  0.00  0.00     0.358 C 
ATOM     25  N           0     138.107 130.430 146.152  0.00  0.00    -0.346 N 
ATOM     26  H           0     137.759 130.704 145.290  0.00  0.00     0.161 HD
ATOM     27  H           0     138.149 129.488 146.381  0.00  0.00     0.161 HD
ATOM     28  O           0     138.969 131.015 148.114  0.00  0.00    -0.239 OA
ENDBRANCH  23  24
ENDBRANCH  22  23
ENDBRANCH   6  22
BRANCH  19  29
ATOM     29  O           0     135.899 133.051 141.045  0.00  0.00    -0.362 OA
ATOM     30  H           0     135.471 132.349 140.536  0.00  0.00     0.213 HD
ENDBRANCH  19  29
BRANCH  19  31
ATOM     31  O           0     137.585 132.352 142.521  0.00  0.00    -0.362 OA
ATOM     32  H           0     137.714 131.995 143.411  0.00  0.00     0.213 HD
ENDBRANCH  19  31
TORSDOF 5
ENDMDL
MODEL 3
REMARK VINA RESULT:      -6.9      5.540     10.208
REMARK  5 active torsions:
REMARK  status: ('A' for Active; 'I' for Inactive)
REMARK    1  A    between atoms: C_6  and  C_7 
REMARK    2  A    between atoms: C_7  and  O_8 
REMARK    3  A    between atoms: O_8  and  C_9 
REMARK       I    between atoms: C_9  and  N_10 
REMARK    4  A    between atoms: C_24  and  O_25 
REMARK    5  A    between atoms: C_24  and  O_26 
ROOT
ATOM      1  N           0     131.405 132.238 134.973  0.00  0.00    -0.235 N 
ATOM      2  H           0     130.828 131.899 135.674  0.00  0.00     0.174 HD
ATOM      3  H           0     131.766 131.632 134.306  0.00  0.00     0.174 HD
ATOM      4  C           0     131.691 133.509 134.921  0.00  0.00     0.672 C 
ATOM      5  N           0     131.197 134.413 135.845  0.00  0.00    -0.218 N 
ATOM      6  C           0     131.984 135.609 136.133  0.00  0.00     0.151 C 
ATOM      7  C           0     132.395 136.355 134.879  0.00  0.00     0.180 C 
ATOM      8  N           0     131.236 137.114 134.363  0.00  0.00    -0.215 N 
ATOM      9  C           0     131.253 137.017 132.994  0.00  0.00     0.672 C 
ATOM     10  N           0     130.623 137.832 132.194  0.00  0.00    -0.235 N 
ATOM     11  H           0     130.101 138.563 132.560  0.00  0.00     0.174 HD
ATOM     12  H           0     130.676 137.707 131.234  0.00  0.00     0.174 HD
ATOM     13  C           0     132.785 135.453 133.719  0.00  0.00     0.219 C 
ATOM     14  N           0     132.014 135.957 132.570  0.00  0.00    -0.187 N 
ATOM     15  C           0     132.057 135.422 131.206  0.00  0.00     0.171 C 
ATOM     16  N           0     132.507 134.034 133.953  0.00  0.00    -0.183 N 
ATOM     17  C           0     133.332 133.308 132.971  0.00  0.00     0.150 C 
ATOM     18  C           0     134.656 134.106 132.918  0.00  0.00     0.093 C 
ATOM     19  C           0     134.290 135.528 133.412  0.00  0.00     0.210 C 
ATOM     20  H           0     130.348 134.257 136.288  0.00  0.00     0.178 HD
ATOM     21  H           0     130.583 137.594 134.896  0.00  0.00     0.178 HD
ENDROOT
BRANCH   6  22
ATOM     22  C           0     133.245 135.197 136.896  0.00  0.00     0.208 C 
BRANCH  22  23
ATOM     23  O           0     132.875 134.369 138.030  0.00  0.00    -0.302 OA
BRANCH  23  24
ATOM     24  C           0     132.985 134.854 139.281  0.00  0.00     0.358 C 
ATOM     25  N           0     133.546 136.063 139.490  0.00  0.00    -0.346 N 
ATOM     26  H           0     133.870 136.582 138.738  0.00  0.00     0.161 HD
ATOM     27  H           0     133.625 136.412 140.391  0.00  0.00     0.161 HD
ATOM     28  O           0     132.577 134.203 140.224  0.00  0.00    -0.239 OA
ENDBRANCH  23  24
ENDBRANCH  22  23
ENDBRANCH   6  22
BRANCH  19  29
ATOM     29  O           0     134.548 136.492 132.389  0.00  0.00    -0.362 OA
ATOM     30  H           0     133.765 136.514 131.822  0.00  0.00     0.213 HD
ENDBRANCH  19  29
BRANCH  19  31
ATOM     31  O           0     135.022 135.848 134.596  0.00  0.00    -0.362 OA
ATOM     32  H           0     135.197 136.800 134.568  0.00  0.00     0.213 HD
ENDBRANCH  19  31
TORSDOF 5
ENDMDL
MODEL 4
REMARK VINA RESULT:      -6.8      4.581      6.796
REMARK  5 active torsions:
REMARK  status: ('A' for Active; 'I' for Inactive)
REMARK    1  A    between atoms: C_6  and  C_7 
REMARK    2  A    between atoms: C_7  and  O_8 
REMARK    3  A    between atoms: O_8  and  C_9 
REMARK       I    between atoms: C_9  and  N_10 
REMARK    4  A    between atoms: C_24  and  O_25 
REMARK    5  A    between atoms: C_24  and  O_26 
ROOT
ATOM      1  N           0     134.344 131.985 149.432  0.00  0.00    -0.235 N 
ATOM      2  H           0     133.922 131.674 150.247  0.00  0.00     0.174 HD
ATOM      3  H           0     134.251 132.913 149.162  0.00  0.00     0.174 HD
ATOM      4  C           0     135.042 131.161 148.703  0.00  0.00     0.672 C 
ATOM      5  N           0     135.209 129.832 149.049  0.00  0.00    -0.218 N 
ATOM      6  C           0     135.422 128.859 147.980  0.00  0.00     0.151 C 
ATOM      7  C           0     136.531 129.268 147.031  0.00  0.00     0.180 C 
ATOM      8  N           0     137.839 129.009 147.671  0.00  0.00    -0.215 N 
ATOM      9  C           0     138.671 130.054 147.351  0.00  0.00     0.672 C 
ATOM     10  N           0     139.971 130.004 147.425  0.00  0.00    -0.235 N 
ATOM     11  H           0     140.409 129.190 147.720  0.00  0.00     0.174 HD
ATOM     12  H           0     140.501 130.780 147.184  0.00  0.00     0.174 HD
ATOM     13  C           0     136.566 130.756 146.719  0.00  0.00     0.219 C 
ATOM     14  N           0     137.965 131.159 146.945  0.00  0.00    -0.187 N 
ATOM     15  C           0     138.509 132.507 146.762  0.00  0.00     0.171 C 
ATOM     16  N           0     135.653 131.553 147.540  0.00  0.00    -0.183 N 
ATOM     17  C           0     135.492 132.829 146.818  0.00  0.00     0.150 C 
ATOM     18  C           0     135.451 132.422 145.326  0.00  0.00     0.093 C 
ATOM     19  C           0     136.166 131.048 145.263  0.00  0.00     0.210 C 
ATOM     20  H           0     135.187 129.553 149.979  0.00  0.00     0.178 HD
ATOM     21  H           0     138.067 128.241 148.216  0.00  0.00     0.178 HD
ENDROOT
BRANCH   6  22
ATOM     22  C           0     134.124 128.708 147.185  0.00  0.00     0.208 C 
BRANCH  22  23
ATOM     23  O           0     133.103 128.119 148.033  0.00  0.00    -0.302 OA
BRANCH  23  24
ATOM     24  C           0     132.167 127.313 147.497  0.00  0.00     0.358 C 
ATOM     25  N           0     132.516 126.107 147.006  0.00  0.00    -0.346 N 
ATOM     26  H           0     133.441 125.821 147.038  0.00  0.00     0.161 HD
ATOM     27  H           0     131.841 125.527 146.620  0.00  0.00     0.161 HD
ATOM     28  O           0     131.006 127.673 147.457  0.00  0.00    -0.239 OA
ENDBRANCH  23  24
ENDBRANCH  22  23
ENDBRANCH   6  22
BRANCH  19  29
ATOM     29  O           0     137.325 131.128 144.429  0.00  0.00    -0.362 OA
ATOM     30  H           0     138.063 130.770 144.941  0.00  0.00     0.213 HD
ENDBRANCH  19  29
BRANCH  19  31
ATOM     31  O           0     135.273 130.043 144.782  0.00  0.00    -0.362 OA
ATOM     32  H           0     135.524 129.215 145.216  0.00  0.00     0.213 HD
ENDBRANCH  19  31
TORSDOF 5
ENDMDL
MODEL 5
REMARK VINA RESULT:      -6.8      2.838      4.725
REMARK  5 active torsions:
REMARK  status: ('A' for Active; 'I' for Inactive)
REMARK    1  A    between atoms: C_6  and  C_7 
REMARK    2  A    between atoms: C_7  and  O_8 
REMARK    3  A    between atoms: O_8  and  C_9 
REMARK       I    between atoms: C_9  and  N_10 
REMARK    4  A    between atoms: C_24  and  O_25 
REMARK    5  A    between atoms: C_24  and  O_26 
ROOT
ATOM      1  N           0     139.630 130.590 146.001  0.00  0.00    -0.235 N 
ATOM      2  H           0     140.384 130.742 145.410  0.00  0.00     0.174 HD
ATOM      3  H           0     139.660 129.868 146.649  0.00  0.00     0.174 HD
ATOM      4  C           0     138.580 131.358 145.930  0.00  0.00     0.672 C 
ATOM      5  N           0     138.493 132.404 145.026  0.00  0.00    -0.218 N 
ATOM      6  C           0     137.170 132.802 144.554  0.00  0.00     0.151 C 
ATOM      7  C           0     136.192 133.042 145.688  0.00  0.00     0.180 C 
ATOM      8  N           0     136.481 134.353 146.309  0.00  0.00    -0.215 N 
ATOM      9  C           0     136.330 134.211 147.667  0.00  0.00     0.672 C 
ATOM     10  N           0     136.148 135.204 148.492  0.00  0.00    -0.235 N 
ATOM     11  H           0     136.112 136.113 148.155  0.00  0.00     0.174 HD
ATOM     12  H           0     136.049 135.034 149.441  0.00  0.00     0.174 HD
ATOM     13  C           0     136.321 132.057 146.839  0.00  0.00     0.219 C 
ATOM     14  N           0     136.395 132.894 148.049  0.00  0.00    -0.187 N 
ATOM     15  C           0     136.512 132.405 149.425  0.00  0.00     0.171 C 
ATOM     16  N           0     137.489 131.180 146.739  0.00  0.00    -0.183 N 
ATOM     17  C           0     137.206 130.049 147.642  0.00  0.00     0.150 C 
ATOM     18  C           0     135.694 129.781 147.458  0.00  0.00     0.093 C 
ATOM     19  C           0     135.109 131.115 146.929  0.00  0.00     0.210 C 
ATOM     20  H           0     139.291 132.861 144.716  0.00  0.00     0.178 HD
ATOM     21  H           0     136.731 135.165 145.842  0.00  0.00     0.178 HD
ENDROOT
BRANCH   6  22
ATOM     22  C           0     136.615 131.698 143.652  0.00  0.00     0.208 C 
BRANCH  22  23
ATOM     23  O           0     135.312 132.094 143.149  0.00  0.00    -0.302 OA
BRANCH  23  24
ATOM     24  C           0     135.208 133.120 142.285  0.00  0.00     0.358 C 
ATOM     25  N           0     135.880 133.089 141.116  0.00  0.00    -0.346 N 
ATOM     26  H           0     136.438 132.327 140.899  0.00  0.00     0.161 HD
ATOM     27  H           0     135.805 133.829 140.493  0.00  0.00     0.161 HD
ATOM     28  O           0     134.508 134.077 142.557  0.00  0.00    -0.239 OA
ENDBRANCH  23  24
ENDBRANCH  22  23
ENDBRANCH   6  22
BRANCH  19  29
ATOM     29  O           0     134.137 131.630 147.841  0.00  0.00    -0.362 OA
ATOM     30  H           0     133.789 132.443 147.450  0.00  0.00     0.213 HD
ENDBRANCH  19  29
BRANCH  19  31
ATOM     31  O           0     134.530 130.927 145.636  0.00  0.00    -0.362 OA
ATOM     32  H           0     134.002 131.716 145.449  0.00  0.00     0.213 HD
ENDBRANCH  19  31
TORSDOF 5
ENDMDL
MODEL 6
REMARK VINA RESULT:      -6.7      3.113      4.434
REMARK  5 active torsions:
REMARK  status: ('A' for Active; 'I' for Inactive)
REMARK    1  A    between atoms: C_6  and  C_7 
REMARK    2  A    between atoms: C_7  and  O_8 
REMARK    3  A    between atoms: O_8  and  C_9 
REMARK       I    between atoms: C_9  and  N_10 
REMARK    4  A    between atoms: C_24  and  O_25 
REMARK    5  A    between atoms: C_24  and  O_26 
ROOT
ATOM      1  N           0     135.990 134.620 146.945  0.00  0.00    -0.235 N 
ATOM      2  H           0     135.508 135.291 146.438  0.00  0.00     0.174 HD
ATOM      3  H           0     136.483 134.874 147.741  0.00  0.00     0.174 HD
ATOM      4  C           0     135.970 133.374 146.562  0.00  0.00     0.672 C 
ATOM      5  N           0     135.277 132.961 145.437  0.00  0.00    -0.218 N 
ATOM      6  C           0     135.762 131.786 144.718  0.00  0.00     0.151 C 
ATOM      7  C           0     135.986 130.595 145.629  0.00  0.00     0.180 C 
ATOM      8  N           0     134.681 129.984 145.960  0.00  0.00    -0.215 N 
ATOM      9  C           0     134.720 129.614 147.282  0.00  0.00     0.672 C 
ATOM     10  N           0     133.917 128.742 147.823  0.00  0.00    -0.235 N 
ATOM     11  H           0     133.238 128.308 147.282  0.00  0.00     0.174 HD
ATOM     12  H           0     133.998 128.526 148.765  0.00  0.00     0.174 HD
ATOM     13  C           0     136.577 130.951 146.984  0.00  0.00     0.219 C 
ATOM     14  N           0     135.709 130.278 147.965  0.00  0.00    -0.187 N 
ATOM     15  C           0     135.876 130.307 149.421  0.00  0.00     0.171 C 
ATOM     16  N           0     136.639 132.391 147.242  0.00  0.00    -0.183 N 
ATOM     17  C           0     137.612 132.549 148.339  0.00  0.00     0.150 C 
ATOM     18  C           0     138.712 131.506 148.029  0.00  0.00     0.093 C 
ATOM     19  C           0     138.022 130.447 147.132  0.00  0.00     0.210 C 
ATOM     20  H           0     134.489 133.439 145.135  0.00  0.00     0.178 HD
ATOM     21  H           0     133.934 129.865 145.354  0.00  0.00     0.178 HD
ENDROOT
BRANCH   6  22
ATOM     22  C           0     137.084 132.137 144.033  0.00  0.00     0.208 C 
BRANCH  22  23
ATOM     23  O           0     136.842 133.108 142.981  0.00  0.00    -0.302 OA
BRANCH  23  24
ATOM     24  C           0     137.433 134.317 143.031  0.00  0.00     0.358 C 
ATOM     25  N           0     138.484 134.587 142.231  0.00  0.00    -0.346 N 
ATOM     26  H           0     138.813 133.910 141.620  0.00  0.00     0.161 HD
ATOM     27  H           0     138.910 135.457 142.267  0.00  0.00     0.161 HD
ATOM     28  O           0     137.019 135.165 143.798  0.00  0.00    -0.239 OA
ENDBRANCH  23  24
ENDBRANCH  22  23
ENDBRANCH   6  22
BRANCH  19  29
ATOM     29  O           0     138.047 129.166 147.767  0.00  0.00    -0.362 OA
ATOM     30  H           0     138.638 129.243 148.528  0.00  0.00     0.213 HD
ENDBRANCH  19  29
BRANCH  19  31
ATOM     31  O           0     138.659 130.384 145.855  0.00  0.00    -0.362 OA
ATOM     32  H           0     137.960 130.451 145.190  0.00  0.00     0.213 HD
ENDBRANCH  19  31
TORSDOF 5
ENDMDL
MODEL 7
REMARK VINA RESULT:      -6.6      7.526     10.160
REMARK  5 active torsions:
REMARK  status: ('A' for Active; 'I' for Inactive)
REMARK    1  A    between atoms: C_6  and  C_7 
REMARK    2  A    between atoms: C_7  and  O_8 
REMARK    3  A    between atoms: O_8  and  C_9 
REMARK       I    between atoms: C_9  and  N_10 
REMARK    4  A    between atoms: C_24  and  O_25 
REMARK    5  A    between atoms: C_24  and  O_26 
ROOT
ATOM      1  N           0     132.897 137.996 132.075  0.00  0.00    -0.235 N 
ATOM      2  H           0     132.304 138.710 131.792  0.00  0.00     0.174 HD
ATOM      3  H           0     133.825 137.997 131.793  0.00  0.00     0.174 HD
ATOM      4  C           0     132.449 137.041 132.840  0.00  0.00     0.672 C 
ATOM      5  N           0     131.135 136.999 133.273  0.00  0.00    -0.218 N 
ATOM      6  C           0     130.541 135.695 133.557  0.00  0.00     0.151 C 
ATOM      7  C           0     131.396 134.853 134.484  0.00  0.00     0.180 C 
ATOM      8  N           0     131.240 135.344 135.870  0.00  0.00    -0.215 N 
ATOM      9  C           0     132.475 135.294 136.468  0.00  0.00     0.672 C 
ATOM     10  N           0     132.665 135.300 137.758  0.00  0.00    -0.235 N 
ATOM     11  H           0     131.904 135.341 138.359  0.00  0.00     0.174 HD
ATOM     12  H           0     133.565 135.263 138.117  0.00  0.00     0.174 HD
ATOM     13  C           0     132.890 134.964 134.223  0.00  0.00     0.219 C 
ATOM     14  N           0     133.486 135.238 135.542  0.00  0.00    -0.187 N 
ATOM     15  C           0     134.914 135.414 135.818  0.00  0.00     0.171 C 
ATOM     16  N           0     133.246 136.009 133.261  0.00  0.00    -0.183 N 
ATOM     17  C           0     134.609 135.675 132.809  0.00  0.00     0.150 C 
ATOM     18  C           0     134.611 134.131 132.706  0.00  0.00     0.093 C 
ATOM     19  C           0     133.472 133.662 133.646  0.00  0.00     0.210 C 
ATOM     20  H           0     130.622 137.815 133.386  0.00  0.00     0.178 HD
ATOM     21  H           0     130.416 135.646 136.281  0.00  0.00     0.178 HD
ENDROOT
BRANCH   6  22
ATOM     22  C           0     130.352 134.941 132.240  0.00  0.00     0.208 C 
BRANCH  22  23
ATOM     23  O           0     128.978 134.486 132.135  0.00  0.00    -0.302 OA
BRANCH  23  24
ATOM     24  C           0     128.710 133.171 132.029  0.00  0.00     0.358 C 
ATOM     25  N           0     129.411 132.279 132.758  0.00  0.00    -0.346 N 
ATOM     26  H           0     130.108 132.586 133.358  0.00  0.00     0.161 HD
ATOM     27  H           0     129.218 131.332 132.681  0.00  0.00     0.161 HD
ATOM     28  O           0     127.835 132.788 131.277  0.00  0.00    -0.239 OA
ENDBRANCH  23  24
ENDBRANCH  22  23
ENDBRANCH   6  22
BRANCH  19  29
ATOM     29  O           0     133.995 132.839 134.690  0.00  0.00    -0.362 OA
ATOM     30  H           0     133.246 132.581 135.245  0.00  0.00     0.213 HD
ENDBRANCH  19  29
BRANCH  19  31
ATOM     31  O           0     132.474 132.958 132.907  0.00  0.00    -0.362 OA
ATOM     32  H           0     132.255 133.505 132.139  0.00  0.00     0.213 HD
ENDBRANCH  19  31
TORSDOF 5
ENDMDL
MODEL 8
REMARK VINA RESULT:      -6.6      8.739     10.643
REMARK  5 active torsions:
REMARK  status: ('A' for Active; 'I' for Inactive)
REMARK    1  A    between atoms: C_6  and  C_7 
REMARK    2  A    between atoms: C_7  and  O_8 
REMARK    3  A    between atoms: O_8  and  C_9 
REMARK       I    between atoms: C_9  and  N_10 
REMARK    4  A    between atoms: C_24  and  O_25 
REMARK    5  A    between atoms: C_24  and  O_26 
ROOT
ATOM      1  N           0     129.368 132.977 131.853  0.00  0.00    -0.235 N 
ATOM      2  H           0     128.681 132.304 131.975  0.00  0.00     0.174 HD
ATOM      3  H           0     129.390 133.506 131.040  0.00  0.00     0.174 HD
ATOM      4  C           0     130.258 133.175 132.784  0.00  0.00     0.672 C 
ATOM      5  N           0     130.265 132.450 133.963  0.00  0.00    -0.218 N 
ATOM      6  C           0     131.542 132.248 134.644  0.00  0.00     0.151 C 
ATOM      7  C           0     132.305 133.541 134.852  0.00  0.00     0.180 C 
ATOM      8  N           0     131.702 134.285 135.978  0.00  0.00    -0.215 N 
ATOM      9  C           0     131.702 135.617 135.643  0.00  0.00     0.672 C 
ATOM     10  N           0     131.591 136.590 136.503  0.00  0.00    -0.235 N 
ATOM     11  H           0     131.501 136.392 137.449  0.00  0.00     0.174 HD
ATOM     12  H           0     131.598 137.510 136.199  0.00  0.00     0.174 HD
ATOM     13  C           0     132.214 134.511 133.684  0.00  0.00     0.219 C 
ATOM     14  N           0     131.834 135.799 134.289  0.00  0.00    -0.187 N 
ATOM     15  C           0     131.635 137.059 133.568  0.00  0.00     0.171 C 
ATOM     16  N           0     131.252 134.110 132.656  0.00  0.00    -0.183 N 
ATOM     17  C           0     131.621 134.881 131.455  0.00  0.00     0.150 C 
ATOM     18  C           0     133.168 134.898 131.471  0.00  0.00     0.093 C 
ATOM     19  C           0     133.559 134.655 132.951  0.00  0.00     0.210 C 
ATOM     20  H           0     129.443 132.087 134.329  0.00  0.00     0.178 HD
ATOM     21  H           0     131.368 133.902 136.804  0.00  0.00     0.178 HD
ENDROOT
BRANCH   6  22
ATOM     22  C           0     132.401 131.298 133.808  0.00  0.00     0.208 C 
BRANCH  22  23
ATOM     23  O           0     133.506 130.810 134.613  0.00  0.00    -0.302 OA
BRANCH  23  24
ATOM     24  C           0     134.547 130.192 134.024  0.00  0.00     0.358 C 
ATOM     25  N           0     135.574 130.918 133.537  0.00  0.00    -0.346 N 
ATOM     26  H           0     135.562 131.884 133.612  0.00  0.00     0.161 HD
ATOM     27  H           0     136.324 130.473 133.113  0.00  0.00     0.161 HD
ATOM     28  O           0     134.562 128.980 133.930  0.00  0.00    -0.239 OA
ENDBRANCH  23  24
ENDBRANCH  22  23
ENDBRANCH   6  22
BRANCH  19  29
ATOM     29  O           0     134.294 135.769 133.461  0.00  0.00    -0.362 OA
ATOM     30  H           0     133.691 136.263 134.033  0.00  0.00     0.213 HD
ENDBRANCH  19  29
BRANCH  19  31
ATOM     31  O           0     134.322 133.454 133.073  0.00  0.00    -0.362 OA
ATOM     32  H           0     134.721 133.286 132.208  0.00  0.00     0.213 HD
ENDBRANCH  19  31
TORSDOF 5
ENDMDL
MODEL 9
REMARK VINA RESULT:      -6.6      8.518     11.068
REMARK  5 active torsions:
REMARK  status: ('A' for Active; 'I' for Inactive)
REMARK    1  A    between atoms: C_6  and  C_7 
REMARK    2  A    between atoms: C_7  and  O_8 
REMARK    3  A    between atoms: O_8  and  C_9 
REMARK       I    between atoms: C_9  and  N_10 
REMARK    4  A    between atoms: C_24  and  O_25 
REMARK    5  A    between atoms: C_24  and  O_26 
ROOT
ATOM      1  N           0     128.912 133.325 131.338  0.00  0.00    -0.235 N 
ATOM      2  H           0     128.054 133.028 130.998  0.00  0.00     0.174 HD
ATOM      3  H           0     129.318 134.135 130.989  0.00  0.00     0.174 HD
ATOM      4  C           0     129.518 132.642 132.267  0.00  0.00     0.672 C 
ATOM      5  N           0     128.979 131.484 132.800  0.00  0.00    -0.218 N 
ATOM      6  C           0     129.892 130.469 133.319  0.00  0.00     0.151 C 
ATOM      7  C           0     130.905 131.038 134.292  0.00  0.00     0.180 C 
ATOM      8  N           0     130.250 131.267 135.598  0.00  0.00    -0.215 N 
ATOM      9  C           0     130.733 132.450 136.102  0.00  0.00     0.672 C 
ATOM     10  N           0     130.669 132.791 137.358  0.00  0.00    -0.235 N 
ATOM     11  H           0     130.260 132.192 138.003  0.00  0.00     0.174 HD
ATOM     12  H           0     131.029 133.644 137.649  0.00  0.00     0.174 HD
ATOM     13  C           0     131.437 132.409 133.905  0.00  0.00     0.219 C 
ATOM     14  N           0     131.291 133.230 135.120  0.00  0.00    -0.187 N 
ATOM     15  C           0     131.681 134.635 135.257  0.00  0.00     0.171 C 
ATOM     16  N           0     130.734 133.019 132.775  0.00  0.00    -0.183 N 
ATOM     17  C           0     131.637 134.072 132.275  0.00  0.00     0.150 C 
ATOM     18  C           0     133.051 133.456 132.402  0.00  0.00     0.093 C 
ATOM     19  C           0     132.916 132.355 133.485  0.00  0.00     0.210 C 
ATOM     20  H           0     128.018 131.351 132.829  0.00  0.00     0.178 HD
ATOM     21  H           0     129.599 130.687 136.021  0.00  0.00     0.178 HD
ENDROOT
BRANCH   6  22
ATOM     22  C           0     130.640 129.832 132.146  0.00  0.00     0.208 C 
BRANCH  22  23
ATOM     23  O           0     130.471 128.391 132.190  0.00  0.00    -0.302 OA
BRANCH  23  24
ATOM     24  C           0     131.329 127.635 132.900  0.00  0.00     0.358 C 
ATOM     25  N           0     130.967 126.398 133.299  0.00  0.00    -0.346 N 
ATOM     26  H           0     130.089 126.055 133.073  0.00  0.00     0.161 HD
ATOM     27  H           0     131.585 125.853 133.811  0.00  0.00     0.161 HD
ATOM     28  O           0     132.430 128.066 133.183  0.00  0.00    -0.239 OA
ENDBRANCH  23  24
ENDBRANCH  22  23
ENDBRANCH   6  22
BRANCH  19  29
ATOM     29  O           0     133.766 132.645 134.597  0.00  0.00    -0.362 OA
ATOM     30  H           0     133.227 133.117 135.246  0.00  0.00     0.213 HD
ENDBRANCH  19  29
BRANCH  19  31
ATOM     31  O           0     133.230 131.075 132.936  0.00  0.00    -0.362 OA
ATOM     32  H           0     132.643 130.944 132.178  0.00  0.00     0.213 HD
ENDBRANCH  19  31
TORSDOF 5
ENDMDL
