# created with PyMOL 2.3.4
@<TRIPOS>MOLECULE
ligand_out_0001
32 34 1                 
SMALL
USER_CHARGES
@<TRIPOS>ATOM
1	   N	135.004	136.755	143.165	N.3	1	UNK0	-0.235	
2	   N	133.761	134.764	143.012	N.3	1	UNK0	-0.218	
3	   N	134.067	132.152	144.617	N.3	1	UNK0	-0.215	
4	   N	134.823	131.614	146.793	N.3	1	UNK0	-0.235	
5	   N	136.062	132.983	145.316	N.3	1	UNK0	-0.187	
6	   N	136.016	134.690	143.602	N.3	1	UNK0	-0.183	
7	   N	133.560	136.040	139.922	N.pl3	1	UNK0	-0.346	
8	   C	134.933	135.457	143.259	C.3	1	UNK0	0.672	
9	   C	133.858	133.391	142.524	C.3	1	UNK0	0.151	
10	   C	134.773	132.532	143.374	C.3	1	UNK0	0.180	
11	   C	134.975	132.213	145.645	C.3	1	UNK0	0.672	
12	   C	136.018	133.250	143.868	C.3	1	UNK0	0.219	
13	   C	137.093	133.454	146.244	C.3	1	UNK0	0.171	
14	   C	137.423	135.112	143.724	C.3	1	UNK0	0.150	
15	   C	138.228	133.948	143.100	C.3	1	UNK0	0.093	
16	   C	137.295	132.713	143.199	C.3	1	UNK0	0.210	
17	   C	134.395	133.413	141.091	C.2	1	UNK0	0.208	
18	   C	133.407	134.815	139.379	C.2	1	UNK0	0.358	
19	   O	133.316	133.733	140.175	O.2	1	UNK0	-0.302	
20	   O	133.350	134.688	138.172	O.co2	1	UNK0	-0.239	
21	   O	137.898	131.698	144.004	O.2	1	UNK0	-0.362	
22	   O	136.998	132.208	141.897	O.2	1	UNK0	-0.362	
23	   H	134.219	137.267	142.916	 H	1	UNK0	0.174	
24	   H	135.841	137.209	143.349	 H	1	UNK0	0.174	
25	   H	134.028	131.084	146.961	 H	1	UNK0	0.174	
26	   H	135.504	131.699	147.478	 H	1	UNK0	0.174	
27	   H	132.896	135.179	143.160	 H	1	UNK0	0.178	
28	   H	133.132	131.904	144.691	 H	1	UNK0	0.178	
29	   H	133.605	136.140	140.885	 H	1	UNK0	0.161	
30	   H	133.625	136.819	139.349	 H	1	UNK0	0.161	
31	   H	137.743	130.856	143.554	 H	1	UNK0	0.213	
32	   H	137.845	131.995	141.479	 H	1	UNK0	0.213	
@<TRIPOS>BOND
1 1 8 1
2 1 23 1
3 1 24 1
4 2 9 1
5 2 27 1
6 3 11 1
7 3 28 1
8 4 25 1
9 4 26 1
10 5 13 1
11 6 14 1
12 7 29 1
13 7 30 1
14 2 8 1
15 6 8 1
16 9 10 1
17 9 17 1
18 3 10 1
19 10 12 1
20 4 11 1
21 5 11 1
22 5 12 1
23 6 12 1
24 12 16 1
25 14 15 1
26 15 16 1
27 16 21 2
28 16 22 2
29 17 19 2
30 7 18 1
31 18 20 2
32 18 19 2
33 21 31 1
34 22 32 1
@<TRIPOS>SUBSTRUCTURE
1	UNK0	1	GROUP	1 ****	UNK
