# created with PyMOL 2.3.4
@<TRIPOS>MOLECULE
ligand_out_0001
30 32 1                 
SMALL
USER_CHARGES
@<TRIPOS>ATOM
1	   N	135.705	132.665	147.091	N.3	1	UNK0	-0.235	
2	   N	136.942	134.420	146.129	N.3	1	UNK0	-0.218	
3	   N	136.299	136.112	143.635	N.3	1	UNK0	-0.216	
4	   N	134.308	136.815	142.569	N.3	1	UNK0	-0.235	
5	   N	134.704	134.562	143.170	N.3	1	UNK0	-0.191	
6	   N	135.651	133.023	144.779	N.3	1	UNK0	-0.183	
7	   C	136.080	133.340	146.041	C.3	1	UNK0	0.672	
8	   C	137.790	134.722	144.980	C.3	1	UNK0	0.151	
9	   C	137.008	134.815	143.683	C.3	1	UNK0	0.180	
10	   C	135.058	135.886	143.093	C.3	1	UNK0	0.670	
11	   C	135.895	133.787	143.554	C.3	1	UNK0	0.217	
12	   C	134.905	131.827	144.349	C.3	1	UNK0	0.150	
13	   C	135.553	131.435	143.000	C.3	1	UNK0	0.093	
14	   C	136.207	132.737	142.473	C.3	1	UNK0	0.209	
15	   C	138.844	133.623	144.841	C.2	1	UNK0	0.206	
16	   C	139.846	132.634	146.810	C.2	1	UNK0	0.254	
17	   C	141.078	131.768	146.803	C.3	1	UNK0	0.126	
18	   O	139.753	133.677	145.971	O.2	1	UNK0	-0.320	
19	   O	138.939	132.388	147.570	O.co2	1	UNK0	-0.266	
20	   O	135.628	133.115	141.223	O.2	1	UNK0	-0.362	
21	   O	137.619	132.566	142.339	O.2	1	UNK0	-0.362	
22	   H	136.030	132.915	147.970	 H	1	UNK0	0.174	
23	   H	135.096	131.916	146.994	 H	1	UNK0	0.174	
24	   H	134.618	137.734	142.546	 H	1	UNK0	0.174	
25	   H	133.440	136.587	142.201	 H	1	UNK0	0.174	
26	   H	136.980	134.962	146.933	 H	1	UNK0	0.178	
27	   H	136.648	136.967	143.933	 H	1	UNK0	0.178	
28	   H	133.822	134.199	142.998	 H	1	UNK0	0.180	
29	   H	135.026	132.404	140.967	 H	1	UNK0	0.213	
30	   H	137.986	133.435	142.126	 H	1	UNK0	0.213	
@<TRIPOS>BOND
1 1 7 1
2 1 22 1
3 1 23 1
4 2 8 1
5 2 26 1
6 3 10 1
7 3 27 1
8 4 24 1
9 4 25 1
10 5 28 1
11 6 12 1
12 2 7 1
13 6 7 1
14 8 9 1
15 8 15 1
16 3 9 1
17 9 11 1
18 4 10 1
19 5 10 1
20 5 11 1
21 6 11 1
22 11 14 1
23 12 13 1
24 13 14 1
25 14 20 2
26 14 21 2
27 15 18 2
28 16 17 1
29 16 19 2
30 16 18 2
31 20 29 1
32 21 30 1
@<TRIPOS>SUBSTRUCTURE
1	UNK0	1	GROUP	1 ****	UNK
