# created with PyMOL 2.3.4
@<TRIPOS>MOLECULE
ligand_out_0001
28 30 1                 
SMALL
USER_CHARGES
@<TRIPOS>ATOM
1	   N	138.409	133.005	142.777	N.3	1	UNK0	-0.235	
2	   N	136.344	133.189	141.663	N.3	1	UNK0	-0.218	
3	   N	134.084	135.238	142.086	N.3	1	UNK0	-0.216	
4	   N	133.992	137.488	142.812	N.3	1	UNK0	-0.235	
5	   N	135.156	135.810	144.006	N.3	1	UNK0	-0.191	
6	   N	136.525	133.820	143.901	N.3	1	UNK0	-0.183	
7	   C	137.146	133.327	142.783	C.3	1	UNK0	0.672	
8	   C	134.916	132.955	141.859	C.3	1	UNK0	0.150	
9	   C	134.284	133.960	142.801	C.3	1	UNK0	0.180	
10	   C	134.386	136.254	142.959	C.3	1	UNK0	0.670	
11	   C	135.159	134.338	143.987	C.3	1	UNK0	0.217	
12	   C	137.054	133.888	145.276	C.3	1	UNK0	0.150	
13	   C	135.854	133.494	146.169	C.3	1	UNK0	0.093	
14	   C	134.598	133.796	145.311	C.3	1	UNK0	0.209	
15	   C	134.720	131.551	142.434	C.2	1	UNK0	0.192	
16	   O	133.782	134.779	145.952	O.2	1	UNK0	-0.362	
17	   O	133.851	132.600	145.082	O.2	1	UNK0	-0.362	
18	   O	133.337	131.195	142.362	O.2	1	UNK0	-0.399	
19	   H	138.816	132.654	141.969	 H	1	UNK0	0.174	
20	   H	138.943	133.118	143.579	 H	1	UNK0	0.174	
21	   H	133.448	137.736	142.048	 H	1	UNK0	0.174	
22	   H	134.240	138.158	143.468	 H	1	UNK0	0.174	
23	   H	136.723	133.245	140.772	 H	1	UNK0	0.178	
24	   H	133.793	135.341	141.167	 H	1	UNK0	0.178	
25	   H	135.615	136.371	144.650	 H	1	UNK0	0.180	
26	   H	132.862	134.520	145.803	 H	1	UNK0	0.213	
27	   H	132.972	132.742	145.461	 H	1	UNK0	0.213	
28	   H	132.956	131.377	143.231	 H	1	UNK0	0.209	
@<TRIPOS>BOND
1 1 7 1
2 1 19 1
3 1 20 1
4 2 8 1
5 2 23 1
6 3 10 1
7 3 24 1
8 4 21 1
9 4 22 1
10 5 25 1
11 6 12 1
12 2 7 1
13 6 7 1
14 8 9 1
15 8 15 1
16 3 9 1
17 9 11 1
18 4 10 1
19 5 10 1
20 5 11 1
21 6 11 1
22 11 14 1
23 12 13 1
24 13 14 1
25 14 16 2
26 14 17 2
27 15 18 2
28 16 26 1
29 17 27 1
30 18 28 1
@<TRIPOS>SUBSTRUCTURE
1	UNK0	1	GROUP	1 ****	UNK
