# created with PyMOL 2.3.4
@<TRIPOS>MOLECULE
ligand_out_0001
37 39 1                 
SMALL
USER_CHARGES
@<TRIPOS>ATOM
1	   N	135.892	134.917	147.865	N.3	1	UNK0	-0.235	
2	   N	136.594	132.774	148.536	N.3	1	UNK0	-0.218	
3	   N	138.812	130.994	147.349	N.3	1	UNK0	-0.216	
4	   N	140.851	131.404	146.222	N.3	1	UNK0	-0.235	
5	   N	138.814	132.422	145.582	N.3	1	UNK0	-0.191	
6	   N	136.714	133.393	146.291	N.3	1	UNK0	-0.180	
7	   N	133.161	128.238	147.379	N.pl3	1	UNK0	-0.346	
8	   C	136.382	133.745	147.572	C.3	1	UNK0	0.672	
9	   C	136.531	131.373	148.132	C.3	1	UNK0	0.151	
10	   C	137.397	131.072	146.925	C.3	1	UNK0	0.180	
11	   C	139.570	131.595	146.374	C.3	1	UNK0	0.670	
12	   C	137.392	132.166	145.869	C.3	1	UNK0	0.220	
13	   C	136.419	134.123	145.045	C.3	1	UNK0	0.183	
14	   C	136.022	133.019	144.037	C.2	1	UNK0	0.230	
15	   C	136.671	131.722	144.585	C.3	1	UNK0	0.238	
16	   C	135.079	131.022	147.796	C.2	1	UNK0	0.208	
17	   C	134.411	128.738	147.334	C.2	1	UNK0	0.358	
18	   O	134.797	129.666	148.231	O.2	1	UNK0	-0.302	
19	   O	135.190	128.354	146.485	O.co2	1	UNK0	-0.239	
20	   O	137.605	131.195	143.639	O.2	1	UNK0	-0.360	
21	   O	135.667	130.752	144.888	O.2	1	UNK0	-0.360	
22	   O	134.601	132.883	143.983	O.2	1	UNK0	-0.244	
23	   O	135.437	132.848	141.751	O.3	1	UNK0	-0.572	
24	   O	133.863	131.172	142.496	O.3	1	UNK0	-0.572	
25	   O	133.140	133.458	142.190	O.3	1	UNK0	-0.572	
26	   S	134.243	132.576	142.536	S.3	1	UNK0	0.252	
27	   H	135.664	135.132	148.782	 H	1	UNK0	0.174	
28	   H	135.760	135.575	147.165	 H	1	UNK0	0.174	
29	   H	141.326	130.805	146.818	 H	1	UNK0	0.174	
30	   H	141.328	131.861	145.511	 H	1	UNK0	0.174	
31	   H	136.782	133.019	149.456	 H	1	UNK0	0.178	
32	   H	139.143	130.592	148.167	 H	1	UNK0	0.178	
33	   H	139.156	133.063	144.940	 H	1	UNK0	0.180	
34	   H	132.539	128.545	148.056	 H	1	UNK0	0.161	
35	   H	132.883	127.570	146.733	 H	1	UNK0	0.161	
36	   H	138.300	130.755	144.148	 H	1	UNK0	0.213	
37	   H	135.120	131.126	145.593	 H	1	UNK0	0.213	
@<TRIPOS>BOND
1 1 8 1
2 1 27 1
3 1 28 1
4 2 9 1
5 2 31 1
6 3 11 1
7 3 32 1
8 4 29 1
9 4 30 1
10 5 33 1
11 6 13 1
12 7 34 1
13 7 35 1
14 2 8 1
15 6 8 1
16 9 10 1
17 9 16 1
18 3 10 1
19 10 12 1
20 4 11 1
21 5 11 1
22 5 12 1
23 6 12 1
24 12 15 1
25 13 14 1
26 14 15 1
27 14 22 2
28 15 20 2
29 15 21 2
30 16 18 2
31 7 17 1
32 17 19 2
33 17 18 2
34 20 36 1
35 21 37 1
36 22 26 1
37 23 26 1
38 24 26 1
39 25 26 1
@<TRIPOS>SUBSTRUCTURE
1	UNK0	1	GROUP	1 ****	UNK
