# created with PyMOL 2.3.4
@<TRIPOS>MOLECULE
ligand_out_0001
37 39 1                 
SMALL
USER_CHARGES
@<TRIPOS>ATOM
1	   N	134.470	132.323	149.269	N.3	1	UNK0	-0.235	
2	   N	135.269	130.119	149.073	N.3	1	UNK0	-0.218	
3	   N	137.925	129.112	147.878	N.3	1	UNK0	-0.216	
4	   N	140.102	130.013	147.667	N.3	1	UNK0	-0.235	
5	   N	138.163	131.201	147.016	N.3	1	UNK0	-0.191	
6	   N	135.844	131.716	147.475	N.3	1	UNK0	-0.180	
7	   N	132.736	126.291	147.041	N.pl3	1	UNK0	-0.346	
8	   C	135.168	131.426	148.631	C.3	1	UNK0	0.672	
9	   C	135.493	129.068	148.084	C.3	1	UNK0	0.151	
10	   C	136.657	129.372	147.162	C.3	1	UNK0	0.180	
11	   C	138.809	130.104	147.528	C.3	1	UNK0	0.670	
12	   C	136.762	130.833	146.753	C.3	1	UNK0	0.220	
13	   C	135.764	132.943	146.662	C.3	1	UNK0	0.183	
14	   C	135.773	132.436	145.200	C.2	1	UNK0	0.230	
15	   C	136.438	131.037	145.263	C.3	1	UNK0	0.238	
16	   C	134.226	128.908	147.240	C.2	1	UNK0	0.208	
17	   C	132.295	127.470	147.524	C.2	1	UNK0	0.358	
18	   O	133.168	128.345	148.060	O.2	1	UNK0	-0.302	
19	   O	131.113	127.743	147.476	O.co2	1	UNK0	-0.239	
20	   O	137.635	131.019	144.481	O.2	1	UNK0	-0.360	
21	   O	135.530	130.033	144.810	O.2	1	UNK0	-0.360	
22	   O	134.439	132.333	144.701	O.2	1	UNK0	-0.244	
23	   O	134.202	131.301	142.565	O.3	1	UNK0	-0.572	
24	   O	133.521	133.596	142.899	O.3	1	UNK0	-0.572	
25	   O	135.868	133.016	142.919	O.3	1	UNK0	-0.572	
26	   S	134.511	132.573	143.199	S.3	1	UNK0	0.252	
27	   H	134.000	132.082	150.083	 H	1	UNK0	0.174	
28	   H	134.423	133.231	148.933	 H	1	UNK0	0.174	
29	   H	140.495	129.207	148.037	 H	1	UNK0	0.174	
30	   H	140.671	130.752	147.399	 H	1	UNK0	0.174	
31	   H	135.194	129.905	150.017	 H	1	UNK0	0.178	
32	   H	138.100	128.376	148.485	 H	1	UNK0	0.178	
33	   H	138.561	132.070	146.853	 H	1	UNK0	0.180	
34	   H	133.680	126.074	147.079	 H	1	UNK0	0.161	
35	   H	132.109	125.661	146.655	 H	1	UNK0	0.161	
36	   H	137.760	130.108	144.182	 H	1	UNK0	0.213	
37	   H	135.388	130.188	143.866	 H	1	UNK0	0.213	
@<TRIPOS>BOND
1 1 8 1
2 1 27 1
3 1 28 1
4 2 9 1
5 2 31 1
6 3 11 1
7 3 32 1
8 4 29 1
9 4 30 1
10 5 33 1
11 6 13 1
12 7 34 1
13 7 35 1
14 2 8 1
15 6 8 1
16 9 10 1
17 9 16 1
18 3 10 1
19 10 12 1
20 4 11 1
21 5 11 1
22 5 12 1
23 6 12 1
24 12 15 1
25 13 14 1
26 14 15 1
27 14 22 2
28 15 20 2
29 15 21 2
30 16 18 2
31 7 17 1
32 17 19 2
33 17 18 2
34 20 36 1
35 21 37 1
36 22 26 1
37 23 26 1
38 24 26 1
39 25 26 1
@<TRIPOS>SUBSTRUCTURE
1	UNK0	1	GROUP	1 ****	UNK
