MODEL 1
REMARK VINA RESULT:      -7.5      0.000      0.000
REMARK  7 active torsions:
REMARK  status: ('A' for Active; 'I' for Inactive)
REMARK    1  A    between atoms: C_6  and  C_7 
REMARK    2  A    between atoms: C_7  and  O_8 
REMARK    3  A    between atoms: O_8  and  C_9 
REMARK       I    between atoms: C_9  and  N_10 
REMARK    4  A    between atoms: C_22  and  O_23 
REMARK    5  A    between atoms: O_23  and  S_24 
REMARK    6  A    between atoms: C_28  and  O_29 
REMARK    7  A    between atoms: C_28  and  O_30 
ROOT
ATOM      1  N           0     134.470 132.323 149.269  0.00  0.00    -0.235 N 
ATOM      2  H           0     134.000 132.082 150.083  0.00  0.00     0.174 HD
ATOM      3  H           0     134.423 133.231 148.933  0.00  0.00     0.174 HD
ATOM      4  C           0     135.168 131.426 148.631  0.00  0.00     0.672 C 
ATOM      5  N           0     135.269 130.119 149.073  0.00  0.00    -0.218 N 
ATOM      6  C           0     135.493 129.068 148.084  0.00  0.00     0.151 C 
ATOM      7  C           0     136.657 129.372 147.162  0.00  0.00     0.180 C 
ATOM      8  N           0     137.925 129.112 147.878  0.00  0.00    -0.216 N 
ATOM      9  C           0     138.809 130.104 147.528  0.00  0.00     0.670 C 
ATOM     10  N           0     140.102 130.013 147.667  0.00  0.00    -0.235 N 
ATOM     11  H           0     140.495 129.207 148.037  0.00  0.00     0.174 HD
ATOM     12  H           0     140.671 130.752 147.399  0.00  0.00     0.174 HD
ATOM     13  C           0     136.762 130.833 146.753  0.00  0.00     0.220 C 
ATOM     14  N           0     138.163 131.201 147.016  0.00  0.00    -0.191 N 
ATOM     15  N           0     135.844 131.716 147.475  0.00  0.00    -0.180 N 
ATOM     16  C           0     135.764 132.943 146.662  0.00  0.00     0.183 C 
ATOM     17  C           0     135.773 132.436 145.200  0.00  0.00     0.230 C 
ATOM     18  C           0     136.438 131.037 145.263  0.00  0.00     0.238 C 
ATOM     19  H           0     135.194 129.905 150.017  0.00  0.00     0.178 HD
ATOM     20  H           0     138.100 128.376 148.485  0.00  0.00     0.178 HD
ATOM     21  H           0     138.561 132.070 146.853  0.00  0.00     0.180 HD
ENDROOT
BRANCH   6  22
ATOM     22  C           0     134.226 128.908 147.240  0.00  0.00     0.208 C 
BRANCH  22  23
ATOM     23  O           0     133.168 128.345 148.060  0.00  0.00    -0.302 OA
BRANCH  23  24
ATOM     24  C           0     132.295 127.470 147.524  0.00  0.00     0.358 C 
ATOM     25  N           0     132.736 126.291 147.041  0.00  0.00    -0.346 N 
ATOM     26  H           0     133.680 126.074 147.079  0.00  0.00     0.161 HD
ATOM     27  H           0     132.109 125.661 146.655  0.00  0.00     0.161 HD
ATOM     28  O           0     131.113 127.743 147.476  0.00  0.00    -0.239 OA
ENDBRANCH  23  24
ENDBRANCH  22  23
ENDBRANCH   6  22
BRANCH  18  29
ATOM     29  O           0     137.635 131.019 144.481  0.00  0.00    -0.360 OA
ATOM     30  H           0     137.760 130.108 144.182  0.00  0.00     0.213 HD
ENDBRANCH  18  29
BRANCH  18  31
ATOM     31  O           0     135.530 130.033 144.810  0.00  0.00    -0.360 OA
ATOM     32  H           0     135.388 130.188 143.866  0.00  0.00     0.213 HD
ENDBRANCH  18  31
BRANCH  17  33
ATOM     33  O           0     134.439 132.333 144.701  0.00  0.00    -0.244 OA
BRANCH  33  34
ATOM     34  S           0     134.511 132.573 143.199  0.00  0.00     0.252 S 
ATOM     35  O           0     134.202 131.301 142.565  0.00  0.00    -0.572 OA
ATOM     36  O           0     133.521 133.596 142.899  0.00  0.00    -0.572 OA
ATOM     37  O           0     135.868 133.016 142.919  0.00  0.00    -0.572 OA
ENDBRANCH  33  34
ENDBRANCH  17  33
TORSDOF 7
ENDMDL
MODEL 2
REMARK VINA RESULT:      -7.4      1.724      2.237
REMARK  7 active torsions:
REMARK  status: ('A' for Active; 'I' for Inactive)
REMARK    1  A    between atoms: C_6  and  C_7 
REMARK    2  A    between atoms: C_7  and  O_8 
REMARK    3  A    between atoms: O_8  and  C_9 
REMARK       I    between atoms: C_9  and  N_10 
REMARK    4  A    between atoms: C_22  and  O_23 
REMARK    5  A    between atoms: O_23  and  S_24 
REMARK    6  A    between atoms: C_28  and  O_29 
REMARK    7  A    between atoms: C_28  and  O_30 
ROOT
ATOM      1  N           0     135.892 134.916 147.869  0.00  0.00    -0.235 N 
ATOM      2  H           0     135.665 135.129 148.787  0.00  0.00     0.174 HD
ATOM      3  H           0     135.758 135.575 147.170  0.00  0.00     0.174 HD
ATOM      4  C           0     136.384 133.745 147.574  0.00  0.00     0.672 C 
ATOM      5  N           0     136.598 132.773 148.537  0.00  0.00    -0.218 N 
ATOM      6  C           0     136.536 131.372 148.131  0.00  0.00     0.151 C 
ATOM      7  C           0     137.402 131.075 146.923  0.00  0.00     0.180 C 
ATOM      8  N           0     138.817 130.998 147.345  0.00  0.00    -0.216 N 
ATOM      9  C           0     139.573 131.602 146.370  0.00  0.00     0.670 C 
ATOM     10  N           0     140.854 131.413 146.216  0.00  0.00    -0.235 N 
ATOM     11  H           0     141.331 130.814 146.812  0.00  0.00     0.174 HD
ATOM     12  H           0     141.330 131.871 145.506  0.00  0.00     0.174 HD
ATOM     13  C           0     137.395 132.170 145.868  0.00  0.00     0.220 C 
ATOM     14  N           0     138.815 132.428 145.580  0.00  0.00    -0.191 N 
ATOM     15  N           0     136.715 133.395 146.292  0.00  0.00    -0.180 N 
ATOM     16  C           0     136.418 134.126 145.047  0.00  0.00     0.183 C 
ATOM     17  C           0     136.021 133.023 144.039  0.00  0.00     0.230 C 
ATOM     18  C           0     136.673 131.726 144.584  0.00  0.00     0.238 C 
ATOM     19  H           0     136.786 133.017 149.457  0.00  0.00     0.178 HD
ATOM     20  H           0     139.150 130.596 148.162  0.00  0.00     0.178 HD
ATOM     21  H           0     139.156 133.071 144.938  0.00  0.00     0.180 HD
ENDROOT
BRANCH   6  22
ATOM     22  C           0     135.085 131.019 147.795  0.00  0.00     0.208 C 
BRANCH  22  23
ATOM     23  O           0     134.805 129.662 148.229  0.00  0.00    -0.302 OA
BRANCH  23  24
ATOM     24  C           0     134.419 128.736 147.331  0.00  0.00     0.358 C 
ATOM     25  N           0     133.169 128.234 147.377  0.00  0.00    -0.346 N 
ATOM     26  H           0     132.548 128.540 148.055  0.00  0.00     0.161 HD
ATOM     27  H           0     132.891 127.567 146.730  0.00  0.00     0.161 HD
ATOM     28  O           0     135.197 128.353 146.481  0.00  0.00    -0.239 OA
ENDBRANCH  23  24
ENDBRANCH  22  23
ENDBRANCH   6  22
BRANCH  18  29
ATOM     29  O           0     137.607 131.202 143.637  0.00  0.00    -0.360 OA
ATOM     30  H           0     137.120 131.058 142.814  0.00  0.00     0.213 HD
ENDBRANCH  18  29
BRANCH  18  31
ATOM     31  O           0     135.671 130.755 144.887  0.00  0.00    -0.360 OA
ATOM     32  H           0     135.698 130.613 145.844  0.00  0.00     0.213 HD
ENDBRANCH  18  31
BRANCH  17  33
ATOM     33  O           0     134.601 132.884 143.986  0.00  0.00    -0.244 OA
BRANCH  33  34
ATOM     34  S           0     134.242 132.577 142.539  0.00  0.00     0.252 S 
ATOM     35  O           0     133.138 133.458 142.193  0.00  0.00    -0.572 OA
ATOM     36  O           0     135.436 132.851 141.753  0.00  0.00    -0.572 OA
ATOM     37  O           0     133.863 131.173 142.499  0.00  0.00    -0.572 OA
ENDBRANCH  33  34
ENDBRANCH  17  33
TORSDOF 7
ENDMDL
MODEL 3
REMARK VINA RESULT:      -7.2      2.674      5.650
REMARK  7 active torsions:
REMARK  status: ('A' for Active; 'I' for Inactive)
REMARK    1  A    between atoms: C_6  and  C_7 
REMARK    2  A    between atoms: C_7  and  O_8 
REMARK    3  A    between atoms: O_8  and  C_9 
REMARK       I    between atoms: C_9  and  N_10 
REMARK    4  A    between atoms: C_22  and  O_23 
REMARK    5  A    between atoms: O_23  and  S_24 
REMARK    6  A    between atoms: C_28  and  O_29 
REMARK    7  A    between atoms: C_28  and  O_30 
ROOT
ATOM      1  N           0     139.541 130.610 146.618  0.00  0.00    -0.235 N 
ATOM      2  H           0     140.264 130.659 145.974  0.00  0.00     0.174 HD
ATOM      3  H           0     139.584 129.974 147.349  0.00  0.00     0.174 HD
ATOM      4  C           0     138.512 131.404 146.505  0.00  0.00     0.672 C 
ATOM      5  N           0     138.407 132.331 145.483  0.00  0.00    -0.218 N 
ATOM      6  C           0     137.072 132.717 145.034  0.00  0.00     0.151 C 
ATOM      7  C           0     136.169 133.133 146.178  0.00  0.00     0.180 C 
ATOM      8  N           0     136.531 134.499 146.613  0.00  0.00    -0.216 N 
ATOM      9  C           0     136.453 134.532 147.983  0.00  0.00     0.670 C 
ATOM     10  N           0     136.349 135.627 148.684  0.00  0.00    -0.235 N 
ATOM     11  H           0     136.322 136.488 148.238  0.00  0.00     0.174 HD
ATOM     12  H           0     136.297 135.580 149.652  0.00  0.00     0.174 HD
ATOM     13  C           0     136.332 132.295 147.436  0.00  0.00     0.220 C 
ATOM     14  N           0     136.499 133.272 148.524  0.00  0.00    -0.191 N 
ATOM     15  N           0     137.464 131.368 147.386  0.00  0.00    -0.180 N 
ATOM     16  C           0     137.197 130.370 148.438  0.00  0.00     0.183 C 
ATOM     17  C           0     135.670 130.138 148.368  0.00  0.00     0.230 C 
ATOM     18  C           0     135.097 131.417 147.705  0.00  0.00     0.238 C 
ATOM     19  H           0     139.199 132.715 145.076  0.00  0.00     0.178 HD
ATOM     20  H           0     136.781 135.237 146.035  0.00  0.00     0.178 HD
ATOM     21  H           0     136.617 133.060 149.463  0.00  0.00     0.180 HD
ENDROOT
BRANCH   6  22
ATOM     22  C           0     136.433 131.531 144.308  0.00  0.00     0.208 C 
BRANCH  22  23
ATOM     23  O           0     136.552 131.721 142.874  0.00  0.00    -0.302 OA
BRANCH  23  24
ATOM     24  C           0     135.603 132.404 142.206  0.00  0.00     0.358 C 
ATOM     25  N           0     135.933 133.118 141.110  0.00  0.00    -0.346 N 
ATOM     26  H           0     136.852 133.139 140.804  0.00  0.00     0.161 HD
ATOM     27  H           0     135.249 133.610 140.629  0.00  0.00     0.161 HD
ATOM     28  O           0     134.451 132.377 142.589  0.00  0.00    -0.239 OA
ENDBRANCH  23  24
ENDBRANCH  22  23
ENDBRANCH   6  22
BRANCH  18  29
ATOM     29  O           0     134.195 132.077 148.595  0.00  0.00    -0.360 OA
ATOM     30  H           0     133.463 131.466 148.756  0.00  0.00     0.213 HD
ENDBRANCH  18  29
BRANCH  18  31
ATOM     31  O           0     134.441 131.092 146.479  0.00  0.00    -0.360 OA
ATOM     32  H           0     134.123 131.924 146.102  0.00  0.00     0.213 HD
ENDBRANCH  18  31
BRANCH  17  33
ATOM     33  O           0     135.377 128.989 147.571  0.00  0.00    -0.244 OA
BRANCH  33  34
ATOM     34  S           0     134.309 128.198 148.315  0.00  0.00     0.252 S 
ATOM     35  O           0     134.996 127.481 149.378  0.00  0.00    -0.572 OA
ATOM     36  O           0     133.360 129.174 148.829  0.00  0.00    -0.572 OA
ATOM     37  O           0     133.709 127.302 147.340  0.00  0.00    -0.572 OA
ENDBRANCH  33  34
ENDBRANCH  17  33
TORSDOF 7
ENDMDL
MODEL 4
REMARK VINA RESULT:      -7.0     12.026     14.253
REMARK  7 active torsions:
REMARK  status: ('A' for Active; 'I' for Inactive)
REMARK    1  A    between atoms: C_6  and  C_7 
REMARK    2  A    between atoms: C_7  and  O_8 
REMARK    3  A    between atoms: O_8  and  C_9 
REMARK       I    between atoms: C_9  and  N_10 
REMARK    4  A    between atoms: C_22  and  O_23 
REMARK    5  A    between atoms: O_23  and  S_24 
REMARK    6  A    between atoms: C_28  and  O_29 
REMARK    7  A    between atoms: C_28  and  O_30 
ROOT
ATOM      1  N           0     131.222 133.331 136.962  0.00  0.00    -0.235 N 
ATOM      2  H           0     131.162 133.960 137.697  0.00  0.00     0.174 HD
ATOM      3  H           0     131.368 132.389 137.141  0.00  0.00     0.174 HD
ATOM      4  C           0     131.100 133.750 135.734  0.00  0.00     0.672 C 
ATOM      5  N           0     130.886 135.082 135.428  0.00  0.00    -0.218 N 
ATOM      6  C           0     131.366 135.583 134.143  0.00  0.00     0.151 C 
ATOM      7  C           0     130.915 134.727 132.977  0.00  0.00     0.180 C 
ATOM      8  N           0     129.497 135.019 132.678  0.00  0.00    -0.216 N 
ATOM      9  C           0     128.884 133.829 132.372  0.00  0.00     0.670 C 
ATOM     10  N           0     127.759 133.731 131.721  0.00  0.00    -0.235 N 
ATOM     11  H           0     127.302 134.531 131.420  0.00  0.00     0.174 HD
ATOM     12  H           0     127.380 132.857 131.537  0.00  0.00     0.174 HD
ATOM     13  C           0     130.929 133.233 133.260  0.00  0.00     0.220 C 
ATOM     14  N           0     129.602 132.755 132.837  0.00  0.00    -0.191 N 
ATOM     15  N           0     131.183 132.900 134.662  0.00  0.00    -0.180 N 
ATOM     16  C           0     131.600 131.486 134.657  0.00  0.00     0.183 C 
ATOM     17  C           0     132.474 131.348 133.388  0.00  0.00     0.230 C 
ATOM     18  C           0     132.025 132.507 132.462  0.00  0.00     0.238 C 
ATOM     19  H           0     130.428 135.668 136.050  0.00  0.00     0.178 HD
ATOM     20  H           0     129.075 135.892 132.697  0.00  0.00     0.178 HD
ATOM     21  H           0     129.290 131.838 132.878  0.00  0.00     0.180 HD
ENDROOT
BRANCH   6  22
ATOM     22  C           0     132.896 135.616 134.167  0.00  0.00     0.208 C 
BRANCH  22  23
ATOM     23  O           0     133.351 135.998 135.493  0.00  0.00    -0.302 OA
BRANCH  23  24
ATOM     24  C           0     134.291 135.263 136.118  0.00  0.00     0.358 C 
ATOM     25  N           0     134.795 135.679 137.297  0.00  0.00    -0.346 N 
ATOM     26  H           0     134.482 136.506 137.694  0.00  0.00     0.161 HD
ATOM     27  H           0     135.472 135.151 137.747  0.00  0.00     0.161 HD
ATOM     28  O           0     134.683 134.227 135.620  0.00  0.00    -0.239 OA
ENDBRANCH  23  24
ENDBRANCH  22  23
ENDBRANCH   6  22
BRANCH  18  29
ATOM     29  O           0     131.498 131.990 131.238  0.00  0.00    -0.360 OA
ATOM     30  H           0     130.572 131.767 131.404  0.00  0.00     0.213 HD
ENDBRANCH  18  29
BRANCH  18  31
ATOM     31  O           0     133.118 133.389 132.202  0.00  0.00    -0.360 OA
ATOM     32  H           0     132.763 134.136 131.702  0.00  0.00     0.213 HD
ENDBRANCH  18  31
BRANCH  17  33
ATOM     33  O           0     133.857 131.481 133.721  0.00  0.00    -0.244 OA
BRANCH  33  34
ATOM     34  S           0     134.439 130.074 133.753  0.00  0.00     0.252 S 
ATOM     35  O           0     134.734 129.784 135.148  0.00  0.00    -0.572 OA
ATOM     36  O           0     133.414 129.194 133.210  0.00  0.00    -0.572 OA
ATOM     37  O           0     135.636 130.106 132.928  0.00  0.00    -0.572 OA
ENDBRANCH  33  34
ENDBRANCH  17  33
TORSDOF 7
ENDMDL
MODEL 5
REMARK VINA RESULT:      -7.0      1.598      2.038
REMARK  7 active torsions:
REMARK  status: ('A' for Active; 'I' for Inactive)
REMARK    1  A    between atoms: C_6  and  C_7 
REMARK    2  A    between atoms: C_7  and  O_8 
REMARK    3  A    between atoms: O_8  and  C_9 
REMARK       I    between atoms: C_9  and  N_10 
REMARK    4  A    between atoms: C_22  and  O_23 
REMARK    5  A    between atoms: O_23  and  S_24 
REMARK    6  A    between atoms: C_28  and  O_29 
REMARK    7  A    between atoms: C_28  and  O_30 
ROOT
ATOM      1  N           0     132.795 131.862 149.278  0.00  0.00    -0.235 N 
ATOM      2  H           0     132.000 131.743 149.820  0.00  0.00     0.174 HD
ATOM      3  H           0     132.972 132.717 148.856  0.00  0.00     0.174 HD
ATOM      4  C           0     133.631 130.873 149.121  0.00  0.00     0.672 C 
ATOM      5  N           0     133.426 129.636 149.706  0.00  0.00    -0.218 N 
ATOM      6  C           0     133.978 128.458 149.044  0.00  0.00     0.151 C 
ATOM      7  C           0     135.448 128.611 148.707  0.00  0.00     0.180 C 
ATOM      8  N           0     136.251 128.425 149.935  0.00  0.00    -0.216 N 
ATOM      9  C           0     137.272 129.342 149.905  0.00  0.00     0.670 C 
ATOM     10  N           0     138.364 129.246 150.612  0.00  0.00    -0.235 N 
ATOM     11  H           0     138.491 128.490 151.205  0.00  0.00     0.174 HD
ATOM     12  H           0     139.048 129.930 150.543  0.00  0.00     0.174 HD
ATOM     13  C           0     135.834 130.001 148.225  0.00  0.00     0.220 C 
ATOM     14  N           0     137.003 130.373 149.040  0.00  0.00    -0.191 N 
ATOM     15  N           0     134.765 130.991 148.360  0.00  0.00    -0.180 N 
ATOM     16  C           0     135.144 132.098 147.464  0.00  0.00     0.183 C 
ATOM     17  C           0     135.752 131.398 146.226  0.00  0.00     0.230 C 
ATOM     18  C           0     136.211 130.008 146.734  0.00  0.00     0.238 C 
ATOM     19  H           0     132.930 129.554 150.536  0.00  0.00     0.178 HD
ATOM     20  H           0     136.085 127.775 150.635  0.00  0.00     0.178 HD
ATOM     21  H           0     137.499 131.204 148.973  0.00  0.00     0.180 HD
ENDROOT
BRANCH   6  22
ATOM     22  C           0     133.200 128.209 147.749  0.00  0.00     0.208 C 
BRANCH  22  23
ATOM     23  O           0     131.925 127.589 148.064  0.00  0.00    -0.302 OA
BRANCH  23  24
ATOM     24  C           0     131.667 126.335 147.646  0.00  0.00     0.358 C 
ATOM     25  N           0     132.632 125.617 147.035  0.00  0.00    -0.346 N 
ATOM     26  H           0     133.509 126.003 146.897  0.00  0.00     0.161 HD
ATOM     27  H           0     132.446 124.714 146.734  0.00  0.00     0.161 HD
ATOM     28  O           0     130.567 125.851 147.819  0.00  0.00    -0.239 OA
ENDBRANCH  23  24
ENDBRANCH  22  23
ENDBRANCH   6  22
BRANCH  18  29
ATOM     29  O           0     137.624 129.861 146.572  0.00  0.00    -0.360 OA
ATOM     30  H           0     138.005 129.823 147.460  0.00  0.00     0.213 HD
ENDBRANCH  18  29
BRANCH  18  31
ATOM     31  O           0     135.518 128.970 146.041  0.00  0.00    -0.360 OA
ATOM     32  H           0     135.998 128.814 145.216  0.00  0.00     0.213 HD
ENDBRANCH  18  31
BRANCH  17  33
ATOM     33  O           0     134.766 131.255 145.201  0.00  0.00    -0.244 OA
BRANCH  33  34
ATOM     34  S           0     135.404 131.741 143.907  0.00  0.00     0.252 S 
ATOM     35  O           0     136.843 131.621 144.088  0.00  0.00    -0.572 OA
ATOM     36  O           0     134.905 130.870 142.853  0.00  0.00    -0.572 OA
ATOM     37  O           0     134.980 133.121 143.732  0.00  0.00    -0.572 OA
ENDBRANCH  33  34
ENDBRANCH  17  33
TORSDOF 7
ENDMDL
MODEL 6
REMARK VINA RESULT:      -6.7     12.840     14.801
REMARK  7 active torsions:
REMARK  status: ('A' for Active; 'I' for Inactive)
REMARK    1  A    between atoms: C_6  and  C_7 
REMARK    2  A    between atoms: C_7  and  O_8 
REMARK    3  A    between atoms: O_8  and  C_9 
REMARK       I    between atoms: C_9  and  N_10 
REMARK    4  A    between atoms: C_22  and  O_23 
REMARK    5  A    between atoms: O_23  and  S_24 
REMARK    6  A    between atoms: C_28  and  O_29 
REMARK    7  A    between atoms: C_28  and  O_30 
ROOT
ATOM      1  N           0     133.944 134.671 130.990  0.00  0.00    -0.235 N 
ATOM      2  H           0     133.924 135.329 130.278  0.00  0.00     0.174 HD
ATOM      3  H           0     134.664 134.023 131.032  0.00  0.00     0.174 HD
ATOM      4  C           0     133.005 134.661 131.895  0.00  0.00     0.672 C 
ATOM      5  N           0     131.959 135.568 131.881  0.00  0.00    -0.218 N 
ATOM      6  C           0     130.684 135.163 132.466  0.00  0.00     0.151 C 
ATOM      7  C           0     130.835 134.600 133.865  0.00  0.00     0.180 C 
ATOM      8  N           0     131.037 135.712 134.818  0.00  0.00    -0.216 N 
ATOM      9  C           0     131.976 135.307 135.734  0.00  0.00     0.670 C 
ATOM     10  N           0     132.143 135.858 136.904  0.00  0.00    -0.235 N 
ATOM     11  H           0     131.584 136.604 137.173  0.00  0.00     0.174 HD
ATOM     12  H           0     132.826 135.523 137.506  0.00  0.00     0.174 HD
ATOM     13  C           0     132.066 133.728 134.055  0.00  0.00     0.220 C 
ATOM     14  N           0     132.718 134.251 135.267  0.00  0.00    -0.191 N 
ATOM     15  N           0     132.986 133.748 132.916  0.00  0.00    -0.180 N 
ATOM     16  C           0     133.834 132.554 133.079  0.00  0.00     0.183 C 
ATOM     17  C           0     132.868 131.467 133.606  0.00  0.00     0.230 C 
ATOM     18  C           0     131.698 132.248 134.255  0.00  0.00     0.238 C 
ATOM     19  H           0     132.071 136.451 131.494  0.00  0.00     0.178 HD
ATOM     20  H           0     130.589 136.572 134.798  0.00  0.00     0.178 HD
ATOM     21  H           0     133.530 133.905 135.669  0.00  0.00     0.180 HD
ENDROOT
BRANCH   6  22
ATOM     22  C           0     130.048 134.096 131.571  0.00  0.00     0.208 C 
BRANCH  22  23
ATOM     23  O           0     128.620 134.337 131.471  0.00  0.00    -0.302 OA
BRANCH  23  24
ATOM     24  C           0     127.752 133.326 131.669  0.00  0.00     0.358 C 
ATOM     25  N           0     128.139 132.054 131.446  0.00  0.00    -0.346 N 
ATOM     26  H           0     129.040 131.867 131.143  0.00  0.00     0.161 HD
ATOM     27  H           0     127.514 131.326 131.588  0.00  0.00     0.161 HD
ATOM     28  O           0     126.623 133.561 132.048  0.00  0.00    -0.239 OA
ENDBRANCH  23  24
ENDBRANCH  22  23
ENDBRANCH   6  22
BRANCH  18  29
ATOM     29  O           0     131.603 131.938 135.647  0.00  0.00    -0.360 OA
ATOM     30  H           0     130.985 132.573 136.035  0.00  0.00     0.213 HD
ENDBRANCH  18  29
BRANCH  18  31
ATOM     31  O           0     130.469 131.948 133.591  0.00  0.00    -0.360 OA
ATOM     32  H           0     130.681 131.815 132.657  0.00  0.00     0.213 HD
ENDBRANCH  18  31
BRANCH  17  33
ATOM     33  O           0     132.393 130.659 132.528  0.00  0.00    -0.244 OA
BRANCH  33  34
ATOM     34  S           0     132.836 129.231 132.820  0.00  0.00     0.252 S 
ATOM     35  O           0     133.262 128.666 131.550  0.00  0.00    -0.572 OA
ATOM     36  O           0     133.928 129.328 133.777  0.00  0.00    -0.572 OA
ATOM     37  O           0     131.676 128.547 133.370  0.00  0.00    -0.572 OA
ENDBRANCH  33  34
ENDBRANCH  17  33
TORSDOF 7
ENDMDL
MODEL 7
REMARK VINA RESULT:      -6.7     12.251     13.856
REMARK  7 active torsions:
REMARK  status: ('A' for Active; 'I' for Inactive)
REMARK    1  A    between atoms: C_6  and  C_7 
REMARK    2  A    between atoms: C_7  and  O_8 
REMARK    3  A    between atoms: O_8  and  C_9 
REMARK       I    between atoms: C_9  and  N_10 
REMARK    4  A    between atoms: C_22  and  O_23 
REMARK    5  A    between atoms: O_23  and  S_24 
REMARK    6  A    between atoms: C_28  and  O_29 
REMARK    7  A    between atoms: C_28  and  O_30 
ROOT
ATOM      1  N           0     129.853 131.715 131.359  0.00  0.00    -0.235 N 
ATOM      2  H           0     128.946 132.059 131.376  0.00  0.00     0.174 HD
ATOM      3  H           0     130.108 131.053 130.698  0.00  0.00     0.174 HD
ATOM      4  C           0     130.731 132.148 132.220  0.00  0.00     0.672 C 
ATOM      5  N           0     130.416 133.096 133.179  0.00  0.00    -0.218 N 
ATOM      6  C           0     131.161 133.083 134.435  0.00  0.00     0.151 C 
ATOM      7  C           0     132.662 133.068 134.223  0.00  0.00     0.180 C 
ATOM      8  N           0     133.114 134.426 133.849  0.00  0.00    -0.216 N 
ATOM      9  C           0     134.077 134.288 132.880  0.00  0.00     0.670 C 
ATOM     10  N           0     134.943 135.214 132.572  0.00  0.00    -0.235 N 
ATOM     11  H           0     134.932 136.063 133.040  0.00  0.00     0.174 HD
ATOM     12  H           0     135.599 135.052 131.876  0.00  0.00     0.174 HD
ATOM     13  C           0     133.119 132.198 133.063  0.00  0.00     0.220 C 
ATOM     14  N           0     134.016 133.058 132.274  0.00  0.00    -0.191 N 
ATOM     15  N           0     132.021 131.690 132.238  0.00  0.00    -0.180 N 
ATOM     16  C           0     132.591 130.555 131.489  0.00  0.00     0.183 C 
ATOM     17  C           0     133.529 129.858 132.503  0.00  0.00     0.230 C 
ATOM     18  C           0     133.879 130.951 133.544  0.00  0.00     0.238 C 
ATOM     19  H           0     129.720 133.752 133.020  0.00  0.00     0.178 HD
ATOM     20  H           0     132.788 135.261 134.219  0.00  0.00     0.178 HD
ATOM     21  H           0     134.485 132.799 131.466  0.00  0.00     0.180 HD
ENDROOT
BRANCH   6  22
ATOM     22  C           0     130.764 131.837 135.231  0.00  0.00     0.208 C 
BRANCH  22  23
ATOM     23  O           0     131.315 131.925 136.571  0.00  0.00    -0.302 OA
BRANCH  23  24
ATOM     24  C           0     130.491 131.961 137.636  0.00  0.00     0.358 C 
ATOM     25  N           0     130.819 132.699 138.715  0.00  0.00    -0.346 N 
ATOM     26  H           0     131.646 133.203 138.726  0.00  0.00     0.161 HD
ATOM     27  H           0     130.226 132.725 139.483  0.00  0.00     0.161 HD
ATOM     28  O           0     129.454 131.329 137.623  0.00  0.00    -0.239 OA
ENDBRANCH  23  24
ENDBRANCH  22  23
ENDBRANCH   6  22
BRANCH  18  29
ATOM     29  O           0     135.288 131.194 133.556  0.00  0.00    -0.360 OA
ATOM     30  H           0     135.625 130.926 132.690  0.00  0.00     0.213 HD
ENDBRANCH  18  29
BRANCH  18  31
ATOM     31  O           0     133.429 130.564 134.843  0.00  0.00    -0.360 OA
ATOM     32  H           0     134.201 130.584 135.426  0.00  0.00     0.213 HD
ENDBRANCH  18  31
BRANCH  17  33
ATOM     33  O           0     132.857 128.765 133.132  0.00  0.00    -0.244 OA
BRANCH  33  34
ATOM     34  S           0     133.249 127.509 132.367  0.00  0.00     0.252 S 
ATOM     35  O           0     133.651 126.529 133.364  0.00  0.00    -0.572 OA
ATOM     36  O           0     132.067 127.093 131.627  0.00  0.00    -0.572 OA
ATOM     37  O           0     134.346 127.888 131.490  0.00  0.00    -0.572 OA
ENDBRANCH  33  34
ENDBRANCH  17  33
TORSDOF 7
ENDMDL
MODEL 8
REMARK VINA RESULT:      -6.4      1.748      2.116
REMARK  7 active torsions:
REMARK  status: ('A' for Active; 'I' for Inactive)
REMARK    1  A    between atoms: C_6  and  C_7 
REMARK    2  A    between atoms: C_7  and  O_8 
REMARK    3  A    between atoms: O_8  and  C_9 
REMARK       I    between atoms: C_9  and  N_10 
REMARK    4  A    between atoms: C_22  and  O_23 
REMARK    5  A    between atoms: O_23  and  S_24 
REMARK    6  A    between atoms: C_28  and  O_29 
REMARK    7  A    between atoms: C_28  and  O_30 
ROOT
ATOM      1  N           0     134.403 132.397 149.992  0.00  0.00    -0.235 N 
ATOM      2  H           0     133.822 132.336 150.766  0.00  0.00     0.174 HD
ATOM      3  H           0     134.354 133.168 149.407  0.00  0.00     0.174 HD
ATOM      4  C           0     135.256 131.442 149.741  0.00  0.00     0.672 C 
ATOM      5  N           0     135.367 130.324 150.548  0.00  0.00    -0.218 N 
ATOM      6  C           0     135.821 129.075 149.942  0.00  0.00     0.151 C 
ATOM      7  C           0     137.100 129.243 149.146  0.00  0.00     0.180 C 
ATOM      8  N           0     138.246 129.328 150.077  0.00  0.00    -0.216 N 
ATOM      9  C           0     139.108 130.278 149.588  0.00  0.00     0.670 C 
ATOM     10  N           0     140.364 130.371 149.927  0.00  0.00    -0.235 N 
ATOM     11  H           0     140.741 129.745 150.564  0.00  0.00     0.174 HD
ATOM     12  H           0     140.919 131.068 149.543  0.00  0.00     0.174 HD
ATOM     13  C           0     137.175 130.540 148.356  0.00  0.00     0.220 C 
ATOM     14  N           0     138.485 131.118 148.698  0.00  0.00    -0.191 N 
ATOM     15  N           0     136.094 131.480 148.658  0.00  0.00    -0.180 N 
ATOM     16  C           0     136.070 132.423 147.526  0.00  0.00     0.183 C 
ATOM     17  C           0     136.356 131.543 146.287  0.00  0.00     0.230 C 
ATOM     18  C           0     137.091 130.295 146.840  0.00  0.00     0.238 C 
ATOM     19  H           0     135.151 130.368 151.493  0.00  0.00     0.178 HD
ATOM     20  H           0     138.365 128.809 150.888  0.00  0.00     0.178 HD
ATOM     21  H           0     138.848 131.948 148.351  0.00  0.00     0.180 HD
ENDROOT
BRANCH   6  22
ATOM     22  C           0     134.726 128.553 149.009  0.00  0.00     0.208 C 
BRANCH  22  23
ATOM     23  O           0     133.587 128.116 149.797  0.00  0.00    -0.302 OA
BRANCH  23  24
ATOM     24  C           0     132.367 128.633 149.559  0.00  0.00     0.358 C 
ATOM     25  N           0     132.244 129.760 148.830  0.00  0.00    -0.346 N 
ATOM     26  H           0     133.033 130.199 148.478  0.00  0.00     0.161 HD
ATOM     27  H           0     131.365 130.133 148.658  0.00  0.00     0.161 HD
ATOM     28  O           0     131.378 128.084 150.000  0.00  0.00    -0.239 OA
ENDBRANCH  23  24
ENDBRANCH  22  23
ENDBRANCH   6  22
BRANCH  18  29
ATOM     29  O           0     138.399 130.197 146.273  0.00  0.00    -0.360 OA
ATOM     30  H           0     138.326 130.477 145.350  0.00  0.00     0.213 HD
ENDBRANCH  18  29
BRANCH  18  31
ATOM     31  O           0     136.339 129.112 146.568  0.00  0.00    -0.360 OA
ATOM     32  H           0     136.674 128.424 147.160  0.00  0.00     0.213 HD
ENDBRANCH  18  31
BRANCH  17  33
ATOM     33  O           0     135.132 131.162 145.654  0.00  0.00    -0.244 OA
BRANCH  33  34
ATOM     34  S           0     135.226 131.617 144.204  0.00  0.00     0.252 S 
ATOM     35  O           0     134.566 132.912 144.137  0.00  0.00    -0.572 OA
ATOM     36  O           0     136.645 131.703 143.892  0.00  0.00    -0.572 OA
ATOM     37  O           0     134.545 130.606 143.412  0.00  0.00    -0.572 OA
ENDBRANCH  33  34
ENDBRANCH  17  33
TORSDOF 7
ENDMDL
MODEL 9
REMARK VINA RESULT:      -6.4      3.726      5.763
REMARK  7 active torsions:
REMARK  status: ('A' for Active; 'I' for Inactive)
REMARK    1  A    between atoms: C_6  and  C_7 
REMARK    2  A    between atoms: C_7  and  O_8 
REMARK    3  A    between atoms: O_8  and  C_9 
REMARK       I    between atoms: C_9  and  N_10 
REMARK    4  A    between atoms: C_22  and  O_23 
REMARK    5  A    between atoms: O_23  and  S_24 
REMARK    6  A    between atoms: C_28  and  O_29 
REMARK    7  A    between atoms: C_28  and  O_30 
ROOT
ATOM      1  N           0     134.754 131.532 145.366  0.00  0.00    -0.235 N 
ATOM      2  H           0     134.612 131.338 144.427  0.00  0.00     0.174 HD
ATOM      3  H           0     134.024 131.870 145.908  0.00  0.00     0.174 HD
ATOM      4  C           0     135.926 131.331 145.903  0.00  0.00     0.672 C 
ATOM      5  N           0     136.996 130.846 145.172  0.00  0.00    -0.218 N 
ATOM      6  C           0     138.345 131.218 145.592  0.00  0.00     0.151 C 
ATOM      7  C           0     138.590 130.960 147.065  0.00  0.00     0.180 C 
ATOM      8  N           0     138.811 129.513 147.276  0.00  0.00    -0.216 N 
ATOM      9  C           0     138.176 129.163 148.443  0.00  0.00     0.670 C 
ATOM     10  N           0     138.444 128.086 149.127  0.00  0.00    -0.235 N 
ATOM     11  H           0     139.129 127.474 148.818  0.00  0.00     0.174 HD
ATOM     12  H           0     137.957 127.898 149.945  0.00  0.00     0.174 HD
ATOM     13  C           0     137.404 131.283 147.959  0.00  0.00     0.220 C 
ATOM     14  N           0     137.225 130.086 148.798  0.00  0.00    -0.191 N 
ATOM     15  N           0     136.177 131.594 147.223  0.00  0.00    -0.180 N 
ATOM     16  C           0     135.312 132.296 148.189  0.00  0.00     0.183 C 
ATOM     17  C           0     136.283 133.185 148.999  0.00  0.00     0.230 C 
ATOM     18  C           0     137.670 132.510 148.847  0.00  0.00     0.238 C 
ATOM     19  H           0     136.855 130.273 144.403  0.00  0.00     0.178 HD
ATOM     20  H           0     139.312 128.919 146.696  0.00  0.00     0.178 HD
ATOM     21  H           0     136.552 129.972 149.487  0.00  0.00     0.180 HD
ENDROOT
BRANCH   6  22
ATOM     22  C           0     138.556 132.707 145.310  0.00  0.00     0.208 C 
BRANCH  22  23
ATOM     23  O           0     138.840 132.897 143.899  0.00  0.00    -0.302 OA
BRANCH  23  24
ATOM     24  C           0     137.907 133.439 143.093  0.00  0.00     0.358 C 
ATOM     25  N           0     137.989 134.740 142.750  0.00  0.00    -0.346 N 
ATOM     26  H           0     138.718 135.285 143.082  0.00  0.00     0.161 HD
ATOM     27  H           0     137.317 135.131 142.169  0.00  0.00     0.161 HD
ATOM     28  O           0     136.993 132.757 142.676  0.00  0.00    -0.239 OA
ENDBRANCH  23  24
ENDBRANCH  22  23
ENDBRANCH   6  22
BRANCH  18  29
ATOM     29  O           0     138.170 132.108 150.125  0.00  0.00    -0.360 OA
ATOM     30  H           0     138.036 131.152 150.189  0.00  0.00     0.213 HD
ENDBRANCH  18  29
BRANCH  18  31
ATOM     31  O           0     138.589 133.397 148.208  0.00  0.00    -0.360 OA
ATOM     32  H           0     138.535 134.242 148.675  0.00  0.00     0.213 HD
ENDBRANCH  18  31
BRANCH  17  33
ATOM     33  O           0     136.310 134.509 148.462  0.00  0.00    -0.244 OA
BRANCH  33  34
ATOM     34  S           0     136.513 135.456 149.637  0.00  0.00     0.252 S 
ATOM     35  O           0     135.351 136.330 149.666  0.00  0.00    -0.572 OA
ATOM     36  O           0     136.609 134.622 150.825  0.00  0.00    -0.572 OA
ATOM     37  O           0     137.745 136.182 149.370  0.00  0.00    -0.572 OA
ENDBRANCH  33  34
ENDBRANCH  17  33
TORSDOF 7
ENDMDL
