MODEL 1
REMARK VINA RESULT:      -8.3      0.000      0.000
REMARK  6 active torsions:
REMARK  status: ('A' for Active; 'I' for Inactive)
REMARK    1  A    between atoms: C_6  and  C_7 
REMARK    2  A    between atoms: C_7  and  O_8 
REMARK    3  A    between atoms: O_8  and  C_9 
REMARK    4  A    between atoms: C_9  and  C_10 
REMARK    5  A    between atoms: C_28  and  O_29 
REMARK    6  A    between atoms: C_28  and  O_30 
ROOT
ATOM      1  N           0     136.488 134.625 146.618  0.00  0.00    -0.235 N 
ATOM      2  H           0     136.996 135.428 146.813  0.00  0.00     0.174 HD
ATOM      3  H           0     136.088 134.117 147.341  0.00  0.00     0.174 HD
ATOM      4  C           0     136.341 134.230 145.385  0.00  0.00     0.672 C 
ATOM      5  N           0     136.890 134.924 144.319  0.00  0.00    -0.218 N 
ATOM      6  C           0     137.239 134.177 143.115  0.00  0.00     0.151 C 
ATOM      7  C           0     136.098 133.314 142.611  0.00  0.00     0.180 C 
ATOM      8  N           0     135.108 134.169 141.921  0.00  0.00    -0.216 N 
ATOM      9  C           0     133.858 133.709 142.257  0.00  0.00     0.670 C 
ATOM     10  N           0     132.776 133.970 141.578  0.00  0.00    -0.235 N 
ATOM     11  H           0     132.826 134.519 140.779  0.00  0.00     0.174 HD
ATOM     12  H           0     131.923 133.613 141.870  0.00  0.00     0.174 HD
ATOM     13  C           0     135.294 132.641 143.712  0.00  0.00     0.217 C 
ATOM     14  N           0     133.889 132.944 143.396  0.00  0.00    -0.191 N 
ATOM     15  N           0     135.638 133.101 145.059  0.00  0.00    -0.183 N 
ATOM     16  C           0     135.120 132.063 145.970  0.00  0.00     0.150 C 
ATOM     17  C           0     135.397 130.732 145.230  0.00  0.00     0.093 C 
ATOM     18  C           0     135.509 131.118 143.734  0.00  0.00     0.209 C 
ATOM     19  H           0     137.038 135.881 144.372  0.00  0.00     0.178 HD
ATOM     20  H           0     135.306 134.918 141.338  0.00  0.00     0.178 HD
ATOM     21  H           0     133.116 132.650 143.903  0.00  0.00     0.180 HD
ENDROOT
BRANCH   6  22
ATOM     22  C           0     138.438 133.278 143.421  0.00  0.00     0.207 C 
BRANCH  22  23
ATOM     23  O           0     139.075 133.722 144.648  0.00  0.00    -0.315 OA
BRANCH  23  24
ATOM     24  C           0     139.891 132.889 145.323  0.00  0.00     0.293 C 
ATOM     25  O           0     141.028 132.706 144.935  0.00  0.00    -0.259 OA
BRANCH  24  26
ATOM     26  C           0     139.403 132.199 146.534  0.00  0.00     0.039 A 
ATOM     27  C           0     138.813 130.937 146.433  0.00  0.00     0.017 A 
ATOM     28  C           0     138.364 130.296 147.569  0.00  0.00     0.001 A 
ATOM     29  C           0     138.487 130.905 148.805  0.00  0.00     0.000 A 
ATOM     30  C           0     139.064 132.157 148.912  0.00  0.00     0.001 A 
ATOM     31  C           0     139.522 132.808 147.785  0.00  0.00     0.017 A 
ENDBRANCH  24  26
ENDBRANCH  23  24
ENDBRANCH  22  23
ENDBRANCH   6  22
BRANCH  18  32
ATOM     32  O           0     134.497 130.457 142.970  0.00  0.00    -0.362 OA
ATOM     33  H           0     133.651 130.667 143.388  0.00  0.00     0.213 HD
ENDBRANCH  18  32
BRANCH  18  34
ATOM     34  O           0     136.807 130.792 143.231  0.00  0.00    -0.362 OA
ATOM     35  H           0     136.762 129.882 142.911  0.00  0.00     0.213 HD
ENDBRANCH  18  34
TORSDOF 6
ENDMDL
MODEL 2
REMARK VINA RESULT:      -8.3      2.902      3.711
REMARK  6 active torsions:
REMARK  status: ('A' for Active; 'I' for Inactive)
REMARK    1  A    between atoms: C_6  and  C_7 
REMARK    2  A    between atoms: C_7  and  O_8 
REMARK    3  A    between atoms: O_8  and  C_9 
REMARK    4  A    between atoms: C_9  and  C_10 
REMARK    5  A    between atoms: C_28  and  O_29 
REMARK    6  A    between atoms: C_28  and  O_30 
ROOT
ATOM      1  N           0     135.230 132.543 146.978  0.00  0.00    -0.235 N 
ATOM      2  H           0     135.398 132.829 147.890  0.00  0.00     0.174 HD
ATOM      3  H           0     134.734 131.726 146.810  0.00  0.00     0.174 HD
ATOM      4  C           0     135.669 133.256 145.980  0.00  0.00     0.672 C 
ATOM      5  N           0     136.379 134.430 146.169  0.00  0.00    -0.218 N 
ATOM      6  C           0     137.339 134.829 145.146  0.00  0.00     0.151 C 
ATOM      7  C           0     136.743 134.829 143.751  0.00  0.00     0.180 C 
ATOM      8  N           0     135.902 136.033 143.582  0.00  0.00    -0.216 N 
ATOM      9  C           0     134.785 135.662 142.874  0.00  0.00     0.670 C 
ATOM     10  N           0     134.013 136.496 142.235  0.00  0.00    -0.235 N 
ATOM     11  H           0     134.215 137.445 142.240  0.00  0.00     0.174 HD
ATOM     12  H           0     133.238 136.167 141.753  0.00  0.00     0.174 HD
ATOM     13  C           0     135.788 133.676 143.484  0.00  0.00     0.217 C 
ATOM     14  N           0     134.581 134.306 142.924  0.00  0.00    -0.191 N 
ATOM     15  N           0     135.463 132.891 144.676  0.00  0.00    -0.183 N 
ATOM     16  C           0     134.930 131.613 144.167  0.00  0.00     0.150 C 
ATOM     17  C           0     135.803 131.300 142.929  0.00  0.00     0.093 C 
ATOM     18  C           0     136.368 132.670 142.477  0.00  0.00     0.209 C 
ATOM     19  H           0     136.240 134.973 146.961  0.00  0.00     0.178 HD
ATOM     20  H           0     136.102 136.923 143.910  0.00  0.00     0.178 HD
ATOM     21  H           0     133.779 133.842 142.637  0.00  0.00     0.180 HD
ENDROOT
BRANCH   6  22
ATOM     22  C           0     138.523 133.861 145.174  0.00  0.00     0.207 C 
BRANCH  22  23
ATOM     23  O           0     139.595 134.431 145.971  0.00  0.00    -0.315 OA
BRANCH  23  24
ATOM     24  C           0     139.340 134.893 147.211  0.00  0.00     0.293 C 
ATOM     25  O           0     139.118 134.113 148.116  0.00  0.00    -0.259 OA
BRANCH  24  26
ATOM     26  C           0     139.329 136.348 147.469  0.00  0.00     0.039 A 
ATOM     27  C           0     139.925 137.226 146.561  0.00  0.00     0.017 A 
ATOM     28  C           0     139.906 138.583 146.806  0.00  0.00     0.001 A 
ATOM     29  C           0     139.310 139.074 147.954  0.00  0.00     0.000 A 
ATOM     30  C           0     138.723 138.209 148.860  0.00  0.00     0.001 A 
ATOM     31  C           0     138.729 136.850 148.625  0.00  0.00     0.017 A 
ENDBRANCH  24  26
ENDBRANCH  23  24
ENDBRANCH  22  23
ENDBRANCH   6  22
BRANCH  18  32
ATOM     32  O           0     135.932 132.977 141.151  0.00  0.00    -0.362 OA
ATOM     33  H           0     135.000 132.724 141.098  0.00  0.00     0.213 HD
ENDBRANCH  18  32
BRANCH  18  34
ATOM     34  O           0     137.796 132.666 142.544  0.00  0.00    -0.362 OA
ATOM     35  H           0     138.095 133.511 142.182  0.00  0.00     0.213 HD
ENDBRANCH  18  34
TORSDOF 6
ENDMDL
MODEL 3
REMARK VINA RESULT:      -8.2      1.570      2.153
REMARK  6 active torsions:
REMARK  status: ('A' for Active; 'I' for Inactive)
REMARK    1  A    between atoms: C_6  and  C_7 
REMARK    2  A    between atoms: C_7  and  O_8 
REMARK    3  A    between atoms: O_8  and  C_9 
REMARK    4  A    between atoms: C_9  and  C_10 
REMARK    5  A    between atoms: C_28  and  O_29 
REMARK    6  A    between atoms: C_28  and  O_30 
ROOT
ATOM      1  N           0     135.431 132.702 147.095  0.00  0.00    -0.235 N 
ATOM      2  H           0     135.727 132.952 147.984  0.00  0.00     0.174 HD
ATOM      3  H           0     134.811 131.965 146.979  0.00  0.00     0.174 HD
ATOM      4  C           0     135.864 133.359 146.056  0.00  0.00     0.672 C 
ATOM      5  N           0     136.746 134.421 146.170  0.00  0.00    -0.218 N 
ATOM      6  C           0     137.647 134.695 145.055  0.00  0.00     0.151 C 
ATOM      7  C           0     136.920 134.794 143.727  0.00  0.00     0.180 C 
ATOM      8  N           0     136.243 136.105 143.640  0.00  0.00    -0.216 N 
ATOM      9  C           0     135.020 135.902 143.049  0.00  0.00     0.670 C 
ATOM     10  N           0     134.312 136.843 142.488  0.00  0.00    -0.235 N 
ATOM     11  H           0     134.645 137.754 142.471  0.00  0.00     0.174 HD
ATOM     12  H           0     133.455 136.631 142.088  0.00  0.00     0.174 HD
ATOM     13  C           0     135.791 133.789 143.560  0.00  0.00     0.217 C 
ATOM     14  N           0     134.635 134.587 143.122  0.00  0.00    -0.191 N 
ATOM     15  N           0     135.481 133.042 144.780  0.00  0.00    -0.183 N 
ATOM     16  C           0     134.725 131.857 144.330  0.00  0.00     0.150 C 
ATOM     17  C           0     135.418 131.440 143.011  0.00  0.00     0.093 C 
ATOM     18  C           0     136.122 132.723 142.502  0.00  0.00     0.209 C 
ATOM     19  H           0     136.765 134.968 146.971  0.00  0.00     0.178 HD
ATOM     20  H           0     136.598 136.955 143.945  0.00  0.00     0.178 HD
ATOM     21  H           0     133.751 134.242 142.918  0.00  0.00     0.180 HD
ENDROOT
BRANCH   6  22
ATOM     22  C           0     138.680 133.571 144.966  0.00  0.00     0.207 C 
BRANCH  22  23
ATOM     23  O           0     139.859 133.936 145.732  0.00  0.00    -0.315 OA
BRANCH  23  24
ATOM     24  C           0     140.010 133.486 146.992  0.00  0.00     0.293 C 
ATOM     25  O           0     140.802 134.026 147.740  0.00  0.00    -0.259 OA
BRANCH  24  26
ATOM     26  C           0     139.215 132.335 147.466  0.00  0.00     0.039 A 
ATOM     27  C           0     138.723 132.312 148.772  0.00  0.00     0.017 A 
ATOM     28  C           0     137.976 131.236 149.206  0.00  0.00     0.001 A 
ATOM     29  C           0     137.724 130.176 148.353  0.00  0.00     0.000 A 
ATOM     30  C           0     138.213 130.190 147.059  0.00  0.00     0.001 A 
ATOM     31  C           0     138.957 131.262 146.610  0.00  0.00     0.017 A 
ENDBRANCH  24  26
ENDBRANCH  23  24
ENDBRANCH  22  23
ENDBRANCH   6  22
BRANCH  18  32
ATOM     32  O           0     135.603 133.103 141.225  0.00  0.00    -0.362 OA
ATOM     33  H           0     136.130 133.855 140.922  0.00  0.00     0.213 HD
ENDBRANCH  18  32
BRANCH  18  34
ATOM     34  O           0     137.535 132.520 142.426  0.00  0.00    -0.362 OA
ATOM     35  H           0     137.767 131.906 143.136  0.00  0.00     0.213 HD
ENDBRANCH  18  34
TORSDOF 6
ENDMDL
MODEL 4
REMARK VINA RESULT:      -7.9      2.849      5.494
REMARK  6 active torsions:
REMARK  status: ('A' for Active; 'I' for Inactive)
REMARK    1  A    between atoms: C_6  and  C_7 
REMARK    2  A    between atoms: C_7  and  O_8 
REMARK    3  A    between atoms: O_8  and  C_9 
REMARK    4  A    between atoms: C_9  and  C_10 
REMARK    5  A    between atoms: C_28  and  O_29 
REMARK    6  A    between atoms: C_28  and  O_30 
ROOT
ATOM      1  N           0     135.511 133.170 149.453  0.00  0.00    -0.235 N 
ATOM      2  H           0     135.044 133.998 149.264  0.00  0.00     0.174 HD
ATOM      3  H           0     135.892 133.018 150.333  0.00  0.00     0.174 HD
ATOM      4  C           0     135.626 132.260 148.528  0.00  0.00     0.672 C 
ATOM      5  N           0     135.096 132.429 147.259  0.00  0.00    -0.218 N 
ATOM      6  C           0     135.743 131.746 146.144  0.00  0.00     0.151 C 
ATOM      7  C           0     135.947 130.265 146.404  0.00  0.00     0.180 C 
ATOM      8  N           0     134.661 129.558 146.228  0.00  0.00    -0.216 N 
ATOM      9  C           0     134.576 128.602 147.210  0.00  0.00     0.670 C 
ATOM     10  N           0     133.780 127.570 147.161  0.00  0.00    -0.235 N 
ATOM     11  H           0     133.201 127.442 146.393  0.00  0.00     0.174 HD
ATOM     12  H           0     133.770 126.931 147.890  0.00  0.00     0.174 HD
ATOM     13  C           0     136.354 129.935 147.831  0.00  0.00     0.217 C 
ATOM     14  N           0     135.431 128.868 148.250  0.00  0.00    -0.191 N 
ATOM     15  N           0     136.282 131.077 148.744  0.00  0.00    -0.183 N 
ATOM     16  C           0     137.110 130.701 149.905  0.00  0.00     0.150 C 
ATOM     17  C           0     138.311 129.944 149.289  0.00  0.00     0.093 C 
ATOM     18  C           0     137.805 129.435 147.916  0.00  0.00     0.209 C 
ATOM     19  H           0     134.315 132.986 147.117  0.00  0.00     0.178 HD
ATOM     20  H           0     133.997 129.737 145.544  0.00  0.00     0.178 HD
ATOM     21  H           0     135.429 128.425 149.113  0.00  0.00     0.180 HD
ENDROOT
BRANCH   6  22
ATOM     22  C           0     137.106 132.393 145.890  0.00  0.00     0.207 C 
BRANCH  22  23
ATOM     23  O           0     137.607 131.972 144.594  0.00  0.00    -0.315 OA
BRANCH  23  24
ATOM     24  C           0     137.593 132.829 143.555  0.00  0.00     0.293 C 
ATOM     25  O           0     138.633 133.135 143.006  0.00  0.00    -0.259 OA
BRANCH  24  26
ATOM     26  C           0     136.313 133.398 143.085  0.00  0.00     0.039 A 
ATOM     27  C           0     135.491 132.662 142.229  0.00  0.00     0.017 A 
ATOM     28  C           0     134.295 133.197 141.798  0.00  0.00     0.001 A 
ATOM     29  C           0     133.915 134.465 142.201  0.00  0.00     0.000 A 
ATOM     30  C           0     134.727 135.202 143.044  0.00  0.00     0.001 A 
ATOM     31  C           0     135.924 134.677 143.488  0.00  0.00     0.017 A 
ENDBRANCH  24  26
ENDBRANCH  23  24
ENDBRANCH  22  23
ENDBRANCH   6  22
BRANCH  18  32
ATOM     32  O           0     137.849 128.007 147.865  0.00  0.00    -0.362 OA
ATOM     33  H           0     137.223 127.685 148.528  0.00  0.00     0.213 HD
ENDBRANCH  18  32
BRANCH  18  34
ATOM     34  O           0     138.587 129.997 146.858  0.00  0.00    -0.362 OA
ATOM     35  H           0     139.069 130.744 147.235  0.00  0.00     0.213 HD
ENDBRANCH  18  34
TORSDOF 6
ENDMDL
MODEL 5
REMARK VINA RESULT:      -7.8     10.631     13.372
REMARK  6 active torsions:
REMARK  status: ('A' for Active; 'I' for Inactive)
REMARK    1  A    between atoms: C_6  and  C_7 
REMARK    2  A    between atoms: C_7  and  O_8 
REMARK    3  A    between atoms: O_8  and  C_9 
REMARK    4  A    between atoms: C_9  and  C_10 
REMARK    5  A    between atoms: C_28  and  O_29 
REMARK    6  A    between atoms: C_28  and  O_30 
ROOT
ATOM      1  N           0     128.775 134.382 132.052  0.00  0.00    -0.235 N 
ATOM      2  H           0     128.047 133.995 131.542  0.00  0.00     0.174 HD
ATOM      3  H           0     128.939 135.337 132.013  0.00  0.00     0.174 HD
ATOM      4  C           0     129.531 133.620 132.791  0.00  0.00     0.672 C 
ATOM      5  N           0     129.333 132.252 132.882  0.00  0.00    -0.218 N 
ATOM      6  C           0     130.487 131.405 133.168  0.00  0.00     0.151 C 
ATOM      7  C           0     131.272 131.875 134.377  0.00  0.00     0.180 C 
ATOM      8  N           0     130.549 131.487 135.607  0.00  0.00    -0.216 N 
ATOM      9  C           0     130.661 132.526 136.499  0.00  0.00     0.670 C 
ATOM     10  N           0     130.471 132.411 137.784  0.00  0.00    -0.235 N 
ATOM     11  H           0     130.237 131.550 138.164  0.00  0.00     0.174 HD
ATOM     12  H           0     130.567 133.187 138.358  0.00  0.00     0.174 HD
ATOM     13  C           0     131.397 133.386 134.489  0.00  0.00     0.217 C 
ATOM     14  N           0     130.994 133.699 135.869  0.00  0.00    -0.191 N 
ATOM     15  N           0     130.574 134.119 133.525  0.00  0.00    -0.183 N 
ATOM     16  C           0     131.148 135.477 133.475  0.00  0.00     0.150 C 
ATOM     17  C           0     132.676 135.250 133.568  0.00  0.00     0.093 C 
ATOM     18  C           0     132.838 133.865 134.243  0.00  0.00     0.209 C 
ATOM     19  H           0     128.451 131.868 132.759  0.00  0.00     0.178 HD
ATOM     20  H           0     130.082 130.651 135.757  0.00  0.00     0.178 HD
ATOM     21  H           0     130.971 134.583 136.268  0.00  0.00     0.180 HD
ENDROOT
BRANCH   6  22
ATOM     22  C           0     131.413 131.404 131.950  0.00  0.00     0.207 C 
BRANCH  22  23
ATOM     23  O           0     131.699 130.034 131.561  0.00  0.00    -0.315 OA
BRANCH  23  24
ATOM     24  C           0     132.776 129.401 132.064  0.00  0.00     0.293 C 
ATOM     25  O           0     133.805 130.018 132.263  0.00  0.00    -0.259 OA
BRANCH  24  26
ATOM     26  C           0     132.708 127.959 132.374  0.00  0.00     0.039 A 
ATOM     27  C           0     133.863 127.175 132.323  0.00  0.00     0.017 A 
ATOM     28  C           0     133.793 125.829 132.618  0.00  0.00     0.001 A 
ATOM     29  C           0     132.580 125.253 132.952  0.00  0.00     0.000 A 
ATOM     30  C           0     131.431 126.023 132.999  0.00  0.00     0.001 A 
ATOM     31  C           0     131.488 127.371 132.711  0.00  0.00     0.017 A 
ENDBRANCH  24  26
ENDBRANCH  23  24
ENDBRANCH  22  23
ENDBRANCH   6  22
BRANCH  18  32
ATOM     32  O           0     133.544 133.991 135.479  0.00  0.00    -0.362 OA
ATOM     33  H           0     134.408 134.371 135.270  0.00  0.00     0.213 HD
ENDBRANCH  18  32
BRANCH  18  34
ATOM     34  O           0     133.519 132.961 133.369  0.00  0.00    -0.362 OA
ATOM     35  H           0     133.103 133.046 132.501  0.00  0.00     0.213 HD
ENDBRANCH  18  34
TORSDOF 6
ENDMDL
MODEL 6
REMARK VINA RESULT:      -7.7      3.018      6.174
REMARK  6 active torsions:
REMARK  status: ('A' for Active; 'I' for Inactive)
REMARK    1  A    between atoms: C_6  and  C_7 
REMARK    2  A    between atoms: C_7  and  O_8 
REMARK    3  A    between atoms: O_8  and  C_9 
REMARK    4  A    between atoms: C_9  and  C_10 
REMARK    5  A    between atoms: C_28  and  O_29 
REMARK    6  A    between atoms: C_28  and  O_30 
ROOT
ATOM      1  N           0     138.799 129.084 147.861  0.00  0.00    -0.235 N 
ATOM      2  H           0     139.095 128.410 147.230  0.00  0.00     0.174 HD
ATOM      3  H           0     138.864 128.918 148.814  0.00  0.00     0.174 HD
ATOM      4  C           0     138.318 130.215 147.427  0.00  0.00     0.672 C 
ATOM      5  N           0     138.210 130.501 146.077  0.00  0.00    -0.218 N 
ATOM      6  C           0     137.159 131.417 145.646  0.00  0.00     0.151 C 
ATOM      7  C           0     137.157 132.715 146.430  0.00  0.00     0.180 C 
ATOM      8  N           0     138.254 133.578 145.944  0.00  0.00    -0.216 N 
ATOM      9  C           0     138.814 134.192 147.037  0.00  0.00     0.670 C 
ATOM     10  N           0     139.544 135.271 146.977  0.00  0.00    -0.235 N 
ATOM     11  H           0     139.720 135.690 146.120  0.00  0.00     0.174 HD
ATOM     12  H           0     139.910 135.655 147.789  0.00  0.00     0.174 HD
ATOM     13  C           0     137.454 132.547 147.912  0.00  0.00     0.217 C 
ATOM     14  N           0     138.511 133.530 148.200  0.00  0.00    -0.191 N 
ATOM     15  N           0     137.882 131.196 148.278  0.00  0.00    -0.183 N 
ATOM     16  C           0     137.684 131.107 149.737  0.00  0.00     0.150 C 
ATOM     17  C           0     136.368 131.879 149.993  0.00  0.00     0.093 C 
ATOM     18  C           0     136.220 132.835 148.783  0.00  0.00     0.209 C 
ATOM     19  H           0     138.818 130.103 145.434  0.00  0.00     0.178 HD
ATOM     20  H           0     138.529 133.691 145.020  0.00  0.00     0.178 HD
ATOM     21  H           0     138.921 133.686 149.065  0.00  0.00     0.180 HD
ENDROOT
BRANCH   6  22
ATOM     22  C           0     135.802 130.732 145.826  0.00  0.00     0.207 C 
BRANCH  22  23
ATOM     23  O           0     134.762 131.561 145.243  0.00  0.00    -0.315 OA
BRANCH  23  24
ATOM     24  C           0     134.692 131.714 143.906  0.00  0.00     0.293 C 
ATOM     25  O           0     134.770 130.742 143.179  0.00  0.00    -0.259 OA
BRANCH  24  26
ATOM     26  C           0     134.522 133.061 143.324  0.00  0.00     0.039 A 
ATOM     27  C           0     135.050 134.178 143.974  0.00  0.00     0.017 A 
ATOM     28  C           0     134.892 135.432 143.422  0.00  0.00     0.001 A 
ATOM     29  C           0     134.201 135.586 142.233  0.00  0.00     0.000 A 
ATOM     30  C           0     133.670 134.484 141.587  0.00  0.00     0.001 A 
ATOM     31  C           0     133.825 133.223 142.125  0.00  0.00     0.017 A 
ENDBRANCH  24  26
ENDBRANCH  23  24
ENDBRANCH  22  23
ENDBRANCH   6  22
BRANCH  18  32
ATOM     32  O           0     136.218 134.196 149.219  0.00  0.00    -0.362 OA
ATOM     33  H           0     136.307 134.744 148.427  0.00  0.00     0.213 HD
ENDBRANCH  18  32
BRANCH  18  34
ATOM     34  O           0     135.022 132.541 148.060  0.00  0.00    -0.362 OA
ATOM     35  H           0     134.924 131.580 148.062  0.00  0.00     0.213 HD
ENDBRANCH  18  34
TORSDOF 6
ENDMDL
MODEL 7
REMARK VINA RESULT:      -7.7      2.720      5.117
REMARK  6 active torsions:
REMARK  status: ('A' for Active; 'I' for Inactive)
REMARK    1  A    between atoms: C_6  and  C_7 
REMARK    2  A    between atoms: C_7  and  O_8 
REMARK    3  A    between atoms: O_8  and  C_9 
REMARK    4  A    between atoms: C_9  and  C_10 
REMARK    5  A    between atoms: C_28  and  O_29 
REMARK    6  A    between atoms: C_28  and  O_30 
ROOT
ATOM      1  N           0     139.592 133.363 149.863  0.00  0.00    -0.235 N 
ATOM      2  H           0     139.862 134.281 150.025  0.00  0.00     0.174 HD
ATOM      3  H           0     139.997 132.643 150.371  0.00  0.00     0.174 HD
ATOM      4  C           0     138.683 133.099 148.967  0.00  0.00     0.672 C 
ATOM      5  N           0     138.074 134.093 148.221  0.00  0.00    -0.218 N 
ATOM      6  C           0     137.584 133.755 146.888  0.00  0.00     0.151 C 
ATOM      7  C           0     136.702 132.520 146.885  0.00  0.00     0.180 C 
ATOM      8  N           0     135.364 132.877 147.402  0.00  0.00    -0.216 N 
ATOM      9  C           0     134.936 131.841 148.195  0.00  0.00     0.670 C 
ATOM     10  N           0     133.691 131.634 148.521  0.00  0.00    -0.235 N 
ATOM     11  H           0     132.999 132.233 148.196  0.00  0.00     0.174 HD
ATOM     12  H           0     133.456 130.882 149.086  0.00  0.00     0.174 HD
ATOM     13  C           0     137.173 131.418 147.821  0.00  0.00     0.217 C 
ATOM     14  N           0     135.982 131.051 148.603  0.00  0.00    -0.191 N 
ATOM     15  N           0     138.273 131.820 148.699  0.00  0.00    -0.183 N 
ATOM     16  C           0     138.870 130.559 149.177  0.00  0.00     0.150 C 
ATOM     17  C           0     138.820 129.621 147.947  0.00  0.00     0.093 C 
ATOM     18  C           0     137.692 130.192 147.052  0.00  0.00     0.209 C 
ATOM     19  H           0     137.975 134.991 148.574  0.00  0.00     0.178 HD
ATOM     20  H           0     134.877 133.694 147.214  0.00  0.00     0.178 HD
ATOM     21  H           0     135.941 130.366 149.289  0.00  0.00     0.180 HD
ENDROOT
BRANCH   6  22
ATOM     22  C           0     138.782 133.505 145.969  0.00  0.00     0.207 C 
BRANCH  22  23
ATOM     23  O           0     138.604 134.246 144.732  0.00  0.00    -0.315 OA
BRANCH  23  24
ATOM     24  C           0     138.118 133.625 143.640  0.00  0.00     0.293 C 
ATOM     25  O           0     138.826 132.867 143.007  0.00  0.00    -0.259 OA
BRANCH  24  26
ATOM     26  C           0     136.725 133.866 143.212  0.00  0.00     0.039 A 
ATOM     27  C           0     136.078 132.950 142.380  0.00  0.00     0.017 A 
ATOM     28  C           0     134.775 133.179 141.989  0.00  0.00     0.001 A 
ATOM     29  C           0     134.114 134.320 142.408  0.00  0.00     0.000 A 
ATOM     30  C           0     134.751 135.235 143.227  0.00  0.00     0.001 A 
ATOM     31  C           0     136.052 135.016 143.631  0.00  0.00     0.017 A 
ENDBRANCH  24  26
ENDBRANCH  23  24
ENDBRANCH  22  23
ENDBRANCH   6  22
BRANCH  18  32
ATOM     32  O           0     136.651 129.226 146.884  0.00  0.00    -0.362 OA
ATOM     33  H           0     135.946 129.466 147.500  0.00  0.00     0.213 HD
ENDBRANCH  18  32
BRANCH  18  34
ATOM     34  O           0     138.216 130.587 145.782  0.00  0.00    -0.362 OA
ATOM     35  H           0     137.581 131.207 145.398  0.00  0.00     0.213 HD
ENDBRANCH  18  34
TORSDOF 6
ENDMDL
MODEL 8
REMARK VINA RESULT:      -7.7      3.048      6.184
REMARK  6 active torsions:
REMARK  status: ('A' for Active; 'I' for Inactive)
REMARK    1  A    between atoms: C_6  and  C_7 
REMARK    2  A    between atoms: C_7  and  O_8 
REMARK    3  A    between atoms: O_8  and  C_9 
REMARK    4  A    between atoms: C_9  and  C_10 
REMARK    5  A    between atoms: C_28  and  O_29 
REMARK    6  A    between atoms: C_28  and  O_30 
ROOT
ATOM      1  N           0     133.559 131.657 148.892  0.00  0.00    -0.235 N 
ATOM      2  H           0     132.668 131.370 148.639  0.00  0.00     0.174 HD
ATOM      3  H           0     133.676 132.308 149.602  0.00  0.00     0.174 HD
ATOM      4  C           0     134.600 131.165 148.281  0.00  0.00     0.672 C 
ATOM      5  N           0     134.484 130.230 147.266  0.00  0.00    -0.218 N 
ATOM      6  C           0     135.526 130.188 146.244  0.00  0.00     0.151 C 
ATOM      7  C           0     136.921 130.110 146.833  0.00  0.00     0.180 C 
ATOM      8  N           0     137.176 128.731 147.301  0.00  0.00    -0.216 N 
ATOM      9  C           0     137.865 128.816 148.485  0.00  0.00     0.670 C 
ATOM     10  N           0     138.564 127.841 148.997  0.00  0.00    -0.235 N 
ATOM     11  H           0     138.621 126.990 148.534  0.00  0.00     0.174 HD
ATOM     12  H           0     139.028 127.968 149.839  0.00  0.00     0.174 HD
ATOM     13  C           0     137.118 130.960 148.079  0.00  0.00     0.217 C 
ATOM     14  N           0     137.726 130.052 149.065  0.00  0.00    -0.191 N 
ATOM     15  N           0     135.878 131.541 148.598  0.00  0.00    -0.183 N 
ATOM     16  C           0     136.304 132.645 149.478  0.00  0.00     0.150 C 
ATOM     17  C           0     137.513 133.274 148.745  0.00  0.00     0.093 C 
ATOM     18  C           0     138.052 132.154 147.821  0.00  0.00     0.209 C 
ATOM     19  H           0     133.731 129.620 147.235  0.00  0.00     0.178 HD
ATOM     20  H           0     136.906 127.915 146.852  0.00  0.00     0.178 HD
ATOM     21  H           0     137.988 130.288 149.968  0.00  0.00     0.180 HD
ENDROOT
BRANCH   6  22
ATOM     22  C           0     135.425 131.448 145.383  0.00  0.00     0.207 C 
BRANCH  22  23
ATOM     23  O           0     136.227 131.280 144.184  0.00  0.00    -0.315 OA
BRANCH  23  24
ATOM     24  C           0     136.700 132.360 143.532  0.00  0.00     0.293 C 
ATOM     25  O           0     137.882 132.436 143.259  0.00  0.00    -0.259 OA
BRANCH  24  26
ATOM     26  C           0     135.781 133.452 143.150  0.00  0.00     0.039 A 
ATOM     27  C           0     134.807 133.240 142.172  0.00  0.00     0.017 A 
ATOM     28  C           0     133.950 134.262 141.824  0.00  0.00     0.001 A 
ATOM     29  C           0     134.061 135.500 142.433  0.00  0.00     0.000 A 
ATOM     30  C           0     135.027 135.719 143.397  0.00  0.00     0.001 A 
ATOM     31  C           0     135.888 134.703 143.759  0.00  0.00     0.017 A 
ENDBRANCH  24  26
ENDBRANCH  23  24
ENDBRANCH  22  23
ENDBRANCH   6  22
BRANCH  18  32
ATOM     32  O           0     139.398 131.824 148.168  0.00  0.00    -0.362 OA
ATOM     33  H           0     139.395 131.592 149.107  0.00  0.00     0.213 HD
ENDBRANCH  18  32
BRANCH  18  34
ATOM     34  O           0     137.974 132.558 146.451  0.00  0.00    -0.362 OA
ATOM     35  H           0     137.772 133.503 146.451  0.00  0.00     0.213 HD
ENDBRANCH  18  34
TORSDOF 6
ENDMDL
MODEL 9
REMARK VINA RESULT:      -7.6      2.925      5.831
REMARK  6 active torsions:
REMARK  status: ('A' for Active; 'I' for Inactive)
REMARK    1  A    between atoms: C_6  and  C_7 
REMARK    2  A    between atoms: C_7  and  O_8 
REMARK    3  A    between atoms: O_8  and  C_9 
REMARK    4  A    between atoms: C_9  and  C_10 
REMARK    5  A    between atoms: C_28  and  O_29 
REMARK    6  A    between atoms: C_28  and  O_30 
ROOT
ATOM      1  N           0     134.600 131.413 145.111  0.00  0.00    -0.235 N 
ATOM      2  H           0     134.602 131.414 144.141  0.00  0.00     0.174 HD
ATOM      3  H           0     133.765 131.519 145.593  0.00  0.00     0.174 HD
ATOM      4  C           0     135.717 131.266 145.765  0.00  0.00     0.672 C 
ATOM      5  N           0     136.933 131.107 145.121  0.00  0.00    -0.218 N 
ATOM      6  C           0     138.141 131.562 145.802  0.00  0.00     0.151 C 
ATOM      7  C           0     138.253 131.022 147.215  0.00  0.00     0.180 C 
ATOM      8  N           0     138.687 129.610 147.163  0.00  0.00    -0.216 N 
ATOM      9  C           0     137.989 128.926 148.128  0.00  0.00     0.670 C 
ATOM     10  N           0     138.352 127.772 148.615  0.00  0.00    -0.235 N 
ATOM     11  H           0     139.163 127.346 148.297  0.00  0.00     0.174 HD
ATOM     12  H           0     137.812 127.343 149.297  0.00  0.00     0.174 HD
ATOM     13  C           0     136.933 130.971 147.968  0.00  0.00     0.217 C 
ATOM     14  N           0     136.861 129.607 148.515  0.00  0.00    -0.191 N 
ATOM     15  N           0     135.767 131.263 147.134  0.00  0.00    -0.183 N 
ATOM     16  C           0     134.688 131.607 148.079  0.00  0.00     0.150 C 
ATOM     17  C           0     135.396 132.423 149.187  0.00  0.00     0.093 C 
ATOM     18  C           0     136.884 131.997 149.113  0.00  0.00     0.209 C 
ATOM     19  H           0     136.980 130.704 144.240  0.00  0.00     0.178 HD
ATOM     20  H           0     139.345 129.234 146.558  0.00  0.00     0.178 HD
ATOM     21  H           0     136.142 129.250 149.058  0.00  0.00     0.180 HD
ENDROOT
BRANCH   6  22
ATOM     22  C           0     138.131 133.091 145.859  0.00  0.00     0.207 C 
BRANCH  22  23
ATOM     23  O           0     138.557 133.625 144.577  0.00  0.00    -0.315 OA
BRANCH  23  24
ATOM     24  C           0     137.843 134.602 143.985  0.00  0.00     0.293 C 
ATOM     25  O           0     138.245 135.749 144.011  0.00  0.00    -0.259 OA
BRANCH  24  26
ATOM     26  C           0     136.573 134.280 143.303  0.00  0.00     0.039 A 
ATOM     27  C           0     136.501 133.190 142.433  0.00  0.00     0.017 A 
ATOM     28  C           0     135.310 132.892 141.804  0.00  0.00     0.001 A 
ATOM     29  C           0     134.191 133.677 142.024  0.00  0.00     0.000 A 
ATOM     30  C           0     134.258 134.762 142.880  0.00  0.00     0.001 A 
ATOM     31  C           0     135.442 135.068 143.520  0.00  0.00     0.017 A 
ENDBRANCH  24  26
ENDBRANCH  23  24
ENDBRANCH  22  23
ENDBRANCH   6  22
BRANCH  18  32
ATOM     32  O           0     137.293 131.397 150.344  0.00  0.00    -0.362 OA
ATOM     33  H           0     138.107 130.909 150.160  0.00  0.00     0.213 HD
ENDBRANCH  18  32
BRANCH  18  34
ATOM     34  O           0     137.709 133.123 148.807  0.00  0.00    -0.362 OA
ATOM     35  H           0     137.684 133.705 149.579  0.00  0.00     0.213 HD
ENDBRANCH  18  34
TORSDOF 6
ENDMDL
