# created with PyMOL 2.3.4
@<TRIPOS>MOLECULE
ligand_out_0001
35 38 1                 
SMALL
USER_CHARGES
@<TRIPOS>ATOM
1	   N	136.488	134.625	146.618	N.3	1	UNK0	-0.235	
2	   N	136.890	134.924	144.319	N.3	1	UNK0	-0.218	
3	   N	135.108	134.169	141.921	N.3	1	UNK0	-0.216	
4	   N	132.776	133.970	141.578	N.3	1	UNK0	-0.235	
5	   N	133.889	132.944	143.396	N.3	1	UNK0	-0.191	
6	   N	135.638	133.101	145.059	N.3	1	UNK0	-0.183	
7	   C	136.341	134.230	145.385	C.3	1	UNK0	0.672	
8	   C	137.239	134.177	143.115	C.3	1	UNK0	0.151	
9	   C	136.098	133.314	142.611	C.3	1	UNK0	0.180	
10	   C	133.858	133.709	142.257	C.3	1	UNK0	0.670	
11	   C	135.294	132.641	143.712	C.3	1	UNK0	0.217	
12	   C	135.120	132.063	145.970	C.3	1	UNK0	0.150	
13	   C	135.397	130.732	145.230	C.3	1	UNK0	0.093	
14	   C	135.509	131.118	143.734	C.3	1	UNK0	0.209	
15	   C	138.438	133.278	143.421	C.2	1	UNK0	0.207	
16	   C	139.891	132.889	145.323	C.2	1	UNK0	0.293	
17	   C	139.403	132.199	146.534	C.3	1	UNK0	0.039	
18	   C	138.813	130.937	146.433	C.3	1	UNK0	0.017	
19	   C	138.364	130.296	147.569	C.3	1	UNK0	0.001	
20	   C	138.487	130.905	148.805	C.3	1	UNK0	0.000	
21	   C	139.064	132.157	148.912	C.3	1	UNK0	0.001	
22	   C	139.522	132.808	147.785	C.3	1	UNK0	0.017	
23	   O	139.075	133.722	144.648	O.2	1	UNK0	-0.315	
24	   O	141.028	132.706	144.935	O.co2	1	UNK0	-0.259	
25	   O	134.497	130.457	142.970	O.2	1	UNK0	-0.362	
26	   O	136.807	130.792	143.231	O.2	1	UNK0	-0.362	
27	   H	136.996	135.428	146.813	 H	1	UNK0	0.174	
28	   H	136.088	134.117	147.341	 H	1	UNK0	0.174	
29	   H	132.826	134.519	140.779	 H	1	UNK0	0.174	
30	   H	131.923	133.613	141.870	 H	1	UNK0	0.174	
31	   H	137.038	135.881	144.372	 H	1	UNK0	0.178	
32	   H	135.306	134.918	141.338	 H	1	UNK0	0.178	
33	   H	133.116	132.650	143.903	 H	1	UNK0	0.180	
34	   H	133.651	130.667	143.388	 H	1	UNK0	0.213	
35	   H	136.762	129.882	142.911	 H	1	UNK0	0.213	
@<TRIPOS>BOND
1 1 7 1
2 1 27 1
3 1 28 1
4 2 8 1
5 2 31 1
6 3 10 1
7 3 32 1
8 4 29 1
9 4 30 1
10 5 33 1
11 6 12 1
12 2 7 1
13 6 7 1
14 8 9 1
15 8 15 1
16 3 9 1
17 9 11 1
18 4 10 1
19 5 10 1
20 5 11 1
21 6 11 1
22 11 14 1
23 12 13 1
24 13 14 1
25 14 25 2
26 14 26 2
27 15 23 2
28 16 17 1
29 16 24 2
30 17 18 1
31 17 22 1
32 18 19 1
33 19 20 1
34 20 21 1
35 21 22 1
36 16 23 2
37 25 34 1
38 26 35 1
@<TRIPOS>SUBSTRUCTURE
1	UNK0	1	GROUP	1 ****	UNK
