# created with PyMOL 2.3.4
@<TRIPOS>MOLECULE
ligand_out_0001
32 34 1                 
SMALL
USER_CHARGES
@<TRIPOS>ATOM
1	   N	130.628	131.761	135.304	N.3	1	UNK0	-0.235	
2	   N	129.385	130.564	133.707	N.3	1	UNK0	-0.218	
3	   N	129.956	127.816	132.425	N.3	1	UNK0	-0.211	
4	   N	131.057	125.849	133.142	N.3	1	UNK0	-0.235	
5	   N	132.030	127.996	133.336	N.3	1	UNK0	-0.191	
6	   N	131.710	130.357	133.771	N.3	1	UNK0	-0.183	
7	   N	128.673	133.767	132.596	N.pl3	1	UNK0	-0.346	
8	   C	130.579	130.927	134.303	C.3	1	UNK0	0.672	
9	   C	129.400	130.190	132.295	C.3	1	UNK0	0.151	
10	   C	130.449	129.139	131.983	C.3	1	UNK0	0.182	
11	   C	128.585	127.316	132.296	C.3	1	UNK0	0.169	
12	   C	131.017	127.142	132.978	C.3	1	UNK0	0.672	
13	   C	131.751	129.315	132.746	C.3	1	UNK0	0.217	
14	   C	133.107	130.710	134.068	C.3	1	UNK0	0.150	
15	   C	133.932	130.345	132.816	C.3	1	UNK0	0.093	
16	   C	132.910	129.734	131.818	C.3	1	UNK0	0.209	
17	   C	129.688	131.436	131.456	C.2	1	UNK0	0.208	
18	   C	127.894	133.035	131.775	C.2	1	UNK0	0.358	
19	   O	128.434	132.041	131.044	O.2	1	UNK0	-0.302	
20	   O	126.705	133.272	131.694	O.co2	1	UNK0	-0.239	
21	   O	133.469	128.602	131.149	O.2	1	UNK0	-0.362	
22	   O	132.470	130.715	130.878	O.2	1	UNK0	-0.362	
23	   H	129.810	132.148	135.654	 H	1	UNK0	0.174	
24	   H	131.482	131.991	135.703	 H	1	UNK0	0.174	
25	   H	130.306	125.302	132.867	 H	1	UNK0	0.174	
26	   H	131.839	125.434	133.540	 H	1	UNK0	0.174	
27	   H	128.558	130.558	134.214	 H	1	UNK0	0.178	
28	   H	132.799	127.769	133.881	 H	1	UNK0	0.180	
29	   H	129.622	133.578	132.661	 H	1	UNK0	0.161	
30	   H	128.284	134.483	133.123	 H	1	UNK0	0.161	
31	   H	132.849	128.358	130.448	 H	1	UNK0	0.213	
32	   H	133.103	131.445	130.920	 H	1	UNK0	0.213	
@<TRIPOS>BOND
1 1 8 1
2 1 23 1
3 1 24 1
4 2 9 1
5 2 27 1
6 3 11 1
7 3 12 1
8 4 25 1
9 4 26 1
10 5 28 1
11 6 14 1
12 7 29 1
13 7 30 1
14 2 8 1
15 6 8 1
16 9 10 1
17 9 17 1
18 3 10 1
19 10 13 1
20 4 12 1
21 5 12 1
22 5 13 1
23 6 13 1
24 13 16 1
25 14 15 1
26 15 16 1
27 16 21 2
28 16 22 2
29 17 19 2
30 7 18 1
31 18 20 2
32 18 19 2
33 21 31 1
34 22 32 1
@<TRIPOS>SUBSTRUCTURE
1	UNK0	1	GROUP	1 ****	UNK
